87
covid	1122	99	99	99	99	99	99	99	99	99	99	99	99	99	99	99
C	 11.5156   -1.1467    1.3098
C	 11.4260    0.2641    0.7280
C	 11.4467    1.3159    1.8341
N	 10.2723    0.4225   -0.1540
C	 10.3480    1.2167   -1.3537
C	  8.9520    1.1170   -1.9389
N	  8.1203    0.7437   -0.8161
C	  8.9294    0.2768    0.2477
O	  8.5765   -0.1792    1.3249
C	  6.7010    0.7584   -0.8669
C	  5.9157    0.5050    0.2619
C	  4.5136    0.5395    0.1981
C	  3.8528    0.8234   -0.9983
C	  4.6355    1.0625   -2.1308
C	  6.0348    1.0407   -2.0661
N	  2.4577    0.8334   -1.1325
C	  1.6742    1.4624   -0.0438
C	  0.8295    0.4552    0.7676
N	 -0.0699   -0.3277   -0.1017
C	  0.4148   -0.5856   -1.4744
C	  1.9527   -0.4889   -1.5736
C	 -1.2088   -0.9483    0.3851
C	 -1.4646   -1.0828    1.7568
C	 -2.6180   -1.7190    2.2400
C	 -3.5576   -2.2541    1.3647
C	 -3.3417   -2.1192   -0.0000
C	 -2.1893   -1.4717   -0.4739
O	 -4.6328   -2.8404    1.9660
C	 -5.4949   -3.6800    1.1869
C	 -6.7686   -2.9460    0.7297
O	 -7.5236   -2.4575    1.8447
C	 -7.2881   -1.0471    1.8328
C	 -7.1508   -0.7046    0.3472
O	 -6.4498   -1.8657   -0.1592
C	 -6.2502    0.5324    0.1670
N	 -6.8952    1.7694    0.5381
C	 -7.3682    2.7431   -0.2846
N	 -7.9197    3.6928    0.4357
C	 -7.7390    3.2523    1.7164
N	 -7.1204    2.0728    1.8304
C	 -8.4478   -0.6157   -0.4661
C	 -8.3911   -0.4361   -1.8611
C	 -9.5350   -0.3422   -2.6458
C	-10.7748   -0.4311   -2.0363
C	-10.8814   -0.6158   -0.6647
C	 -9.7251   -0.7107    0.1172
F	-11.8833   -0.3408   -2.7806
F	 -7.2033   -0.3347   -2.4771
H	 11.4607   -1.8998    0.5170
H	 12.4650   -1.2842    1.8397
H	 10.7108   -1.3497    2.0216
H	 12.3151    0.4072    0.1015
H	 10.5930    1.2094    2.5128
H	 12.3622    1.2332    2.4312
H	 11.4084    2.3265    1.4123
H	 11.1178    0.8376   -2.0306
H	 10.5813    2.2478   -1.0687
H	  8.6413    2.0718   -2.3763
H	  8.9007    0.3187   -2.6901
H	  6.3634    0.2831    1.2255
H	  3.9545    0.3134    1.1005
H	  4.1499    1.2825   -3.0782
H	  6.5784    1.2332   -2.9858
H	  2.3032    2.0547    0.6308
H	  0.9926    2.1787   -0.5207
H	  0.2522    1.0340    1.4977
H	  1.4877   -0.2298    1.3153
H	 -0.0460    0.1408   -2.1539
H	  0.1383   -1.5927   -1.8084
H	  2.3906   -1.2886   -0.9579
H	  2.2491   -0.6664   -2.6154
H	 -0.7592   -0.7161    2.4960
H	 -2.7682   -1.8059    3.3135
H	 -4.0500   -2.4835   -0.7363
H	 -2.0876   -1.3676   -1.5504
H	 -5.7898   -4.4954    1.8569
H	 -4.9685   -4.1397    0.3433
H	 -7.4054   -3.6515    0.1855
H	 -8.0861   -0.5258    2.3653
H	 -6.3577   -0.8701    2.3842
H	 -5.3386    0.4466    0.7717
H	 -5.8931    0.6331   -0.8642
H	 -7.2929    2.7123   -1.3631
H	 -8.0721    3.8022    2.5865
H	 -9.4563   -0.1990   -3.7174
H	-11.8653   -0.6857   -0.2076
H	 -9.8554   -0.8636    1.1855
10	10	10	10	10	10	10	10	10	10	10	10	10	10	10	10	10	10	10	10	10	10	10	10	10	10	10	10	10	10	10	10	10	10	10	10	10	10	10	10	10	10	10	10	10	10	10	10	10	10	10	10	10	10	10	10	10	10	10	10	10	10	10	10	10	10	10	10	10	10	10	10	10	10	10	10	10	10	10	10	10	10	10	10	10	10	10	10	10	10	10	10	10	10	10	10	10	10	10	10	10	10	10	10	10	10	10	10	10	10	10	10	10	10	10	10	10	10	10	10	10	10	10	10	10	10	10	10	10	10	10	10	10	10	10	10	10	10	10	10	10	10	10	10	10	10	10	10	10	10	10	10	10	10	10	10	10	10	10	10	10	10	10	10	10	10	10	10	10	10	10	10	10	10	10	10	10	10	10	10	10	10	10	10	10	10	10	10	10	10	10	10	10	10	10	10	10	10	10	10	10	10	10	10	10	10	10	10	10	10	10	10	10	10	10	10	10	10	10	10	10	10	10	10	10	10	10	10	10	10	10	10	10	10	10	10	10	10	10	10	10	10	10	10	10	10	10	10	10	10	10	10	10	10	10	10
CC(C)N1CCN(C1=O)C2=CC=C(C=C2)N3CCN(CC3)C4=CC=C(C=C4)OC[C@H]5OC[C@](O5)(CN6C=NC=N6)C7=C(C=C(C=C7)F)F	CC(C)N1CCN(C1=O)C2=CC=C(C=C2)N3CCN(CC3)C4=CC=C(C=C4)OC[C@H]5OC[C@](O5)(CN6C=NC=N6)C7=C(C=C(C=C7)F)F
CC(C)N1CCN(C1=O)C2=CC=C(C=C2)N3CCN(CC3)C4=CC=C(C=C4)OC[C@H]5OC[C@](O5)(CN6C=NC=N6)C7=C(C=C(C=C7)F)F	CC(C)N1CCN(C1=O)C2=CC=C(C=C2)N3CCN(CC3)C4=CC=C(C=C4)OC[C@H]5OC[C@](O5)(CN6C=NC=N6)C7=C(C=C(C=C7)F)F
O=C1NCCN1c1ccc(N2CCN(c3ccc(OCC4OCC(Cn5cncn5)(c5ccccc5)O4)cc3)CC2)cc1
