41
covid	2004	99	99	99	99	99	99	99	99	99	99	99	99	99	99	99
C	  4.8041   -3.0684    1.4027
O	  4.0627   -2.2100    2.2525
C	  3.2499   -1.2862    1.6581
C	  2.6100   -0.3934    2.5263
C	  1.7711    0.6100    2.0485
C	  1.5467    0.7346    0.6747
C	  2.1908   -0.1494   -0.2013
C	  3.0256   -1.1613    0.2852
C	  0.7201    1.8236    0.1703
C	  0.9691    3.1764    0.3219
C	 -0.0019    3.8466   -0.4482
N	 -0.8055    2.9715   -1.0657
N	 -0.4456    1.7393   -0.5973
C	 -1.2831    0.6206   -0.9171
C	 -2.2867    0.7845   -1.8896
C	 -3.1392   -0.2685   -2.2291
C	 -3.0108   -1.4908   -1.5740
C	 -2.0269   -1.6739   -0.6008
C	 -1.1728   -0.6165   -0.2670
S	 -4.0938   -2.8336   -1.9845
O	 -4.7321   -2.5436   -3.2471
O	 -3.3942   -4.0724   -1.7328
N	 -5.2603   -2.7072   -0.7774
C	 -0.1295    5.3267   -0.6513
F	 -1.3893    5.7731   -0.3871
F	  0.6959    6.0137    0.1917
F	  2.8048   -0.4818    3.8513
H	  4.1381   -3.7822    0.9038
H	  5.3990   -2.5021    0.6764
H	  5.5001   -3.6378    2.0301
H	  1.3153    1.2944    2.7623
H	  2.0646   -0.0498   -1.2802
H	  3.5054   -1.8171   -0.4350
H	  1.7815    3.6255    0.8779
H	 -2.4172    1.7351   -2.4040
H	 -3.8946   -0.1216   -3.0006
H	 -1.9258   -2.6290   -0.0871
H	 -0.4607   -0.7983    0.5280
H	 -5.2181   -3.5378   -0.1837
H	 -5.1972   -1.8455   -0.2405
H	  0.1304    5.6028   -1.6766
10	10	10	10	10	10	10	10	10	10	10	10	10	10	10	10	10	10	10	10	10	10	10	10	10	10	10	10	10	10	10	10	10	10	10	10	10	10	10	10	10	10	10	10	10	10	10	10	10	10	10	10	10	10	10	10	10	10	10	10	10	10	10	10	10	10	10	10	10	10	10	10	10	10	10	10	10	10	10	10	10	10	10	10	10	10	10	10	10	10	10	10	10	10	10	10	10	10	10	10	10	10	10	10	10	10	10	10	10	10	10	10	10	10	10	10	10	10
COC1=C(C=C(C=C1)C2=CC(=NN2C3=CC=C(C=C3)S(=O)(=O)N)C(F)F)F	COC1=C(C=C(C=C1)C2=CC(=NN2C3=CC=C(C=C3)S(=O)(=O)N)C(F)F)F
COC1=C(C=C(C=C1)C2=CC(=NN2C3=CC=C(C=C3)S(=O)(=O)N)C(F)F)F	COC1=C(C=C(C=C1)C2=CC(=NN2C3=CC=C(C=C3)S(=O)(=O)N)C(F)F)F
c1ccc(-c2ccnn2-c2ccccc2)cc1
