59
covid	1776	99	99	99	99	99	99	99	99	99	99	99	99	99	99	99
C	  7.9690    2.2482   -0.8343
C	  8.4561    0.8747   -0.4584
C	  7.6154   -0.2233   -0.1840
C	  8.2007   -1.4954   -0.0080
C	  9.5855   -1.6722   -0.0167
C	 10.4143   -0.5763   -0.2158
C	  9.8539    0.6821   -0.4362
Cl	  7.2140   -2.8969    0.2596
N	  6.1983   -0.1608   -0.1322
C	  5.4347    0.8460    0.4361
O	  5.9062    1.8093    1.0325
C	  4.0062    0.6231    0.3138
C	  3.2939   -0.1035   -0.6176
N	  1.9256   -0.1123   -0.4538
C	  1.5788    0.5924    0.5996
S	  2.9090    1.3484    1.4110
N	  0.3235    0.8138    1.0537
C	 -0.7538   -0.0842    0.8873
C	 -2.0319    0.3935    1.1219
C	 -3.1025   -0.4638    0.9318
N	 -2.8944   -1.7388    0.5633
C	 -1.6275   -2.1337    0.3595
N	 -0.5510   -1.3493    0.4981
C	 -1.4027   -3.5387   -0.1017
N	 -4.4189   -0.0118    1.1661
C	 -4.7916    1.1766    0.3741
C	 -6.2356    1.6347    0.7025
N	 -7.2831    0.5897    0.6261
C	 -6.8272   -0.5663    1.4358
C	 -5.4176   -1.0984    1.0925
C	 -7.5791    0.1785   -0.7626
C	 -8.3869    1.2515   -1.5088
O	 -9.4893    1.6746   -0.7086
H	  7.9073    2.8906    0.0488
H	  7.0032    2.2075   -1.3436
H	  8.6607    2.7207   -1.5466
H	 10.0199   -2.6552    0.1393
H	 11.4945   -0.6989   -0.2159
H	 10.5199    1.5229   -0.6215
H	  5.7468   -1.0691   -0.1579
H	  3.7159   -0.6441   -1.4547
H	  0.2528    1.3196    1.9265
H	 -2.1837    1.4120    1.4528
H	 -0.4598   -3.9263    0.2951
H	 -1.3626   -3.5665   -1.1948
H	 -2.2117   -4.1921    0.2378
H	 -4.1294    2.0185    0.5982
H	 -4.7040    0.9612   -0.6979
H	 -6.4954    2.4892    0.0704
H	 -6.2422    2.0290    1.7274
H	 -6.8356   -0.2597    2.4877
H	 -7.5550   -1.3831    1.3658
H	 -5.1706   -1.8853    1.8184
H	 -5.4319   -1.5481    0.0906
H	 -8.2130   -0.7149   -0.7218
H	 -6.6825   -0.0837   -1.3325
H	 -7.7758    2.1265   -1.7409
H	 -8.7777    0.8531   -2.4484
H	 -9.1822    1.5649    0.2155
10	10	10	10	10	10	10	10	10	10	10	10	10	10	10	10	10	10	10	10	10	10	10	10	10	10	10	10	10	10	10	10	10	10	10	10	10	10	10	10	10	10	10	10	10	10	10	10	10	10	10	10	10	10	10	10	10	10	10	10	10	10	10	10	10	10	10	10	10	10	10	10	10	10	10	10	10	10	10	10	10	10	10	10	10	10	10	10	10	10	10	10	10	10	10	10	10	10	10	10	10	10	10	10	10	10	10	10	10	10	10	10	10	10	10	10	10	10	10	10	10	10	10	10	10	10	10	10	10	10	10	10	10	10	10	10	10	10	10	10	10	10	10	10	10	10	10	10	10	10	10	10	10	10	10	10	10	10	10	10	10	10	10	10	10	10	10	10	10	10	10	10
CC1=C(C(=CC=C1)Cl)NC(=O)C2=CN=C(S2)NC3=CC(=NC(=N3)C)N4CCN(CC4)CCO	CC1=C(C(=CC=C1)Cl)NC(=O)C2=CN=C(S2)NC3=CC(=NC(=N3)C)N4CCN(CC4)CCO
CC1=C(C(=CC=C1)Cl)NC(=O)C2=CN=C(S2)NC3=CC(=NC(=N3)C)N4CCN(CC4)CCO	CC1=C(C(=CC=C1)Cl)NC(=O)C2=CN=C(S2)NC3=CC(=NC(=N3)C)N4CCN(CC4)CCO
O=C(Nc1ccccc1)c1cnc(Nc2cc(N3CCNCC3)ncn2)s1
