82
covid	1992	99	99	99	99	99	99	99	99	99	99	99	99	99	99	99
C	 -8.0107    0.1039    0.4503
C	 -6.7926   -0.3150   -0.3704
C	 -7.1765   -1.3443   -1.4598
C	 -7.3050   -0.6940   -2.8338
C	 -6.0832    0.1713   -3.1960
C	 -5.3216    0.7023   -1.9599
O	 -6.2214    0.9045   -0.8778
O	 -4.2398   -0.1558   -1.6112
C	 -3.2954    0.4847   -0.7496
C	 -2.2352   -0.5325   -0.3005
C	 -2.8196   -1.6289    0.6129
C	 -3.0502   -1.1507    2.0543
C	 -2.1825    0.0550    2.4174
C	 -0.8613    0.0076    1.6404
O	 -1.0961    0.1627    0.2403
O	 -0.0939    1.1135    2.1525
C	  1.2301    1.2105    1.8435
C	  1.9526    0.3820    0.9857
C	  3.3180    0.6159    0.7700
C	  3.9637    1.6985    1.3764
C	  3.2383    2.5201    2.2418
C	  1.8852    2.2656    2.4824
O	  3.8125    3.5204    2.9768
C	  3.7840    4.7821    2.2793
C	  3.1178    5.8348    3.1655
O	  3.9515    6.1630    4.2770
C	  5.3913    1.9106    1.0702
O	  6.0262    2.9062    1.3900
C	  6.0620    0.8445    0.3128
C	  5.3398   -0.1654   -0.1919
O	  3.9671   -0.2837   -0.0458
C	  5.9903   -1.2758   -0.9168
C	  5.5800   -2.5964   -0.6860
C	  6.2319   -3.6573   -1.3203
C	  7.3019   -3.4306   -2.1949
C	  7.6859   -2.1157   -2.4590
C	  7.0368   -1.0493   -1.8265
O	  7.8839   -4.5292   -2.7701
C	  9.2568   -4.3940   -3.1175
O	  5.8431   -4.9434   -1.0640
O	 -2.0004    0.0761    3.8443
O	 -4.4235   -0.8046    2.2733
O	 -1.8594   -2.7048    0.6710
O	 -6.5546    1.2621   -4.0202
O	 -8.5146    0.0756   -2.8993
O	 -6.1793   -2.3779   -1.5249
H	 -8.4576   -0.7505    0.9630
H	 -7.7302    0.8518    1.2002
H	 -8.7741    0.5664   -0.1835
H	 -6.0632   -0.7590    0.3140
H	 -8.1149   -1.8414   -1.1786
H	 -7.4072   -1.4782   -3.5983
H	 -5.3917   -0.4121   -3.8112
H	 -4.9129    1.6887   -2.2163
H	 -3.8017    0.9299    0.1130
H	 -2.8099    1.2967   -1.3006
H	 -1.8599   -1.0283   -1.2063
H	 -3.7411   -2.0485    0.1910
H	 -2.8390   -1.9777    2.7456
H	 -2.7081    0.9864    2.1805
H	 -0.3318   -0.9291    1.8506
H	  1.4812   -0.4500    0.4691
H	  1.3419    2.8958    3.1835
H	  4.8218    5.0685    2.0791
H	  3.2451    4.7171    1.3229
H	  2.1645    5.4685    3.5535
H	  2.9504    6.7509    2.5909
H	  3.4092    6.6555    4.9137
H	  7.1358    0.9352    0.2117
H	  4.7689   -2.7957    0.0114
H	  8.4811   -1.8910   -3.1630
H	  7.3618   -0.0387   -2.0639
H	  9.3727   -3.8093   -4.0345
H	  9.8468   -3.9546   -2.3013
H	  9.6510   -5.3945   -3.3161
H	  5.0398   -4.9328   -0.5169
H	 -1.1645    0.5607    3.9984
H	 -4.4821   -0.5404    3.2124
H	 -1.9222   -3.1812   -0.1767
H	 -6.9935    1.8847   -3.4084
H	 -8.5137    0.4764   -3.7909
H	 -6.5862   -3.1443   -1.9699
10	10	10	10	10	10	10	10	10	10	10	10	10	10	10	10	10	10	10	10	10	10	10	10	10	10	10	10	10	10	10	10	10	10	10	10	10	10	10	10	10	10	10	10	10	10	10	10	10	10	10	10	10	10	10	10	10	10	10	10	10	10	10	10	10	10	10	10	10	10	10	10	10	10	10	10	10	10	10	10	10	10	10	10	10	10	10	10	10	10	10	10	10	10	10	10	10	10	10	10	10	10	10	10	10	10	10	10	10	10	10	10	10	10	10	10	10	10	10	10	10	10	10	10	10	10	10	10	10	10	10	10	10	10	10	10	10	10	10	10	10	10	10	10	10	10	10	10	10	10	10	10	10	10	10	10	10	10	10	10	10	10	10	10	10	10	10	10	10	10	10	10	10	10	10	10	10	10	10	10	10	10	10	10	10	10	10	10	10	10	10	10	10	10	10	10	10	10	10	10	10	10	10	10	10	10	10	10	10	10	10	10	10	10	10	10	10	10	10	10	10	10	10	10	10	10	10	10	10	10	10	10	10	10	10	10	10	10	10	10	10
C[C@H]1[C@@H]([C@H]([C@H]([C@@H](O1)OC[C@@H]2[C@H]([C@@H]([C@H]([C@@H](O2)OC3=CC4=C(C(=C3)OCCO)C(=O)C=C(O4)C5=CC(=C(C=C5)OC)O)O)O)O)O)O)O	C[C@H]1[C@@H]([C@H]([C@H]([C@@H](O1)OC[C@@H]2[C@H]([C@@H]([C@H]([C@@H](O2)OC3=CC4=C(C(=C3)OCCO)C(=O)C=C(O4)C5=CC(=C(C=C5)OC)O)O)O)O)O)O)O
C[C@H]1[C@@H]([C@H]([C@H]([C@@H](O1)OC[C@@H]2[C@H]([C@@H]([C@H]([C@@H](O2)OC3=CC4=C(C(=C3)OCCO)C(=O)C=C(O4)C5=CC(=C(C=C5)OC)O)O)O)O)O)O)O	C[C@H]1[C@@H]([C@H]([C@H]([C@@H](O1)OC[C@@H]2[C@H]([C@@H]([C@H]([C@@H](O2)OC3=CC4=C(C(=C3)OCCO)C(=O)C=C(O4)C5=CC(=C(C=C5)OC)O)O)O)O)O)O)O
O=c1cc(-c2ccccc2)oc2cc(OC3CCCC(COC4CCCCO4)O3)ccc12
