57
covid	2055	99	99	99	99	99	99	99	99	99	99	99	99	99	99	99
C	  4.4942    2.6803    2.2514
O	  4.5738    1.2814    2.0202
C	  4.0152    0.7898    0.8645
C	  4.1472   -0.6136    0.6671
C	  3.6116   -1.2146   -0.4748
C	  2.9574   -0.3996   -1.3797
C	  2.8151    0.9693   -1.2077
C	  3.3477    1.5815   -0.0843
C	  2.0786    1.6148   -2.3403
C	  1.6015    0.4293   -3.2091
C	  2.2926   -0.7812   -2.6177
O	  2.3151   -1.9083   -3.0799
C	  0.0815    0.2799   -3.3898
C	 -0.8729   -0.0582   -2.2195
C	 -0.8453   -1.5359   -1.7832
C	 -1.2975   -1.7495   -0.3318
N	 -2.3882   -0.8371    0.0054
C	 -1.9480    0.5682   -0.0129
C	 -0.7988    0.8532   -0.9963
C	 -3.0100   -1.2003    1.2890
C	 -4.2871   -0.4374    1.5765
C	 -4.4096    0.3430    2.7352
C	 -5.5927    1.0355    3.0007
C	 -6.6648    0.9533    2.1136
C	 -6.5562    0.1792    0.9597
C	 -5.3748   -0.5143    0.6936
O	  4.8070   -1.2978    1.6594
C	  5.0316   -2.6871    1.4616
H	  3.4535    3.0052    2.3493
H	  4.9991    2.8923    3.1987
H	  5.0130    3.2409    1.4667
H	  3.6756   -2.2769   -0.6758
H	  3.2328    2.6527    0.0354
H	  2.7738    2.2415   -2.9118
H	  1.2629    2.2510   -1.9921
H	  2.0322    0.5735   -4.2105
H	 -0.2755    1.2213   -3.8307
H	 -0.0823   -0.4825   -4.1644
H	 -1.8787    0.0987   -2.6416
H	 -1.4992   -2.1058   -2.4572
H	  0.1466   -1.9769   -1.8852
H	 -0.4498   -1.6127    0.3533
H	 -1.6169   -2.7947   -0.2335
H	 -2.8053    1.1925   -0.2918
H	 -1.6191    0.9022    0.9797
H	  0.1472    0.6959   -0.4697
H	 -0.8451    1.9065   -1.2937
H	 -3.2801   -2.2651    1.2841
H	 -2.2935   -1.0715    2.1114
H	 -3.5830    0.4177    3.4374
H	 -5.6784    1.6389    3.9008
H	 -7.5849    1.4931    2.3203
H	 -7.3896    0.1152    0.2654
H	 -5.2937   -1.1117   -0.2125
H	  5.6403   -2.8660    0.5688
H	  5.5880   -3.0623    2.3252
H	  4.0858   -3.2370    1.4135
10	10	10	10	10	10	10	10	10	10	10	10	10	10	10	10	10	10	10	10	10	10	10	10	10	10	10	10	10	10	10	10	10	10	10	10	10	10	10	10	10	10	10	10	10	10	10	10	10	10	10	10	10	10	10	10	10	10	10	10	10	10	10	10	10	10	10	10	10	10	10	10	10	10	10	10	10	10	10	10	10	10	10	10	10	10	10	10	10	10	10	10	10	10	10	10	10	10	10	10	10	10	10	10	10	10	10	10	10	10	10	10	10	10	10	10	10	10	10	10	10	10	10	10	10	10	10	10	10	10	10	10	10	10	10	10	10	10	10	10	10	10	10	10	10	10	10	10	10	10	10	10	10	10	10	10	10	10	10	10	10	10	10	10	10	10
COC1=C(C=C2C(=C1)CC(C2=O)CC3CCN(CC3)CC4=CC=CC=C4)OC	COC1=C(C=C2C(=C1)CC(C2=O)CC3CCN(CC3)CC4=CC=CC=C4)OC
COC1=C(C=C2C(=C1)CC(C2=O)CC3CCN(CC3)CC4=CC=CC=C4)OC	COC1=C(C=C2C(=C1)CC(C2=O)CC3CCN(CC3)CC4=CC=CC=C4)OC
O=C1c2ccccc2CC1CC1CCN(Cc2ccccc2)CC1
