57
covid	1715	99	99	99	99	99	99	99	99	99	99	99	99	99	99	99
C	 -5.0516   -1.3547   -2.9522
O	 -5.5963   -0.1876   -2.3540
C	 -5.1379    0.1518   -1.1083
C	 -5.5544    1.3905   -0.6091
C	 -5.1423    1.8323    0.6467
C	 -4.3073    1.0298    1.4276
C	 -3.8797   -0.2217    0.9639
C	 -4.3065   -0.6450   -0.3140
C	 -2.9757   -1.1566    1.7696
C	 -2.6482   -0.7715    3.2281
O	 -1.7760    0.3690    3.3176
C	 -0.8126    0.3885    2.3463
C	 -0.8005   -0.4713    1.2501
O	 -1.7715   -1.4101    1.0202
C	  0.2437   -0.4199    0.3224
C	  1.2812    0.5144    0.4603
C	  1.2372    1.3918    1.5619
C	  0.1999    1.3297    2.4958
C	  2.4520    0.6278   -0.5099
C	  2.3944   -0.2472   -1.7708
C	  3.6670   -0.0206   -2.5662
O	  3.7078   -0.1097   -3.7944
C	  4.8919    0.2734   -1.8077
C	  6.1355    0.3923   -2.4392
C	  7.2856    0.6245   -1.6888
C	  7.1820    0.7290   -0.3049
C	  5.9497    0.6153    0.3331
C	  4.7979    0.4040   -0.4232
O	  3.6230    0.3024    0.2682
O	  8.2800    0.9470    0.4733
O	  6.2992    0.2830   -3.7937
O	  1.2877    0.0907   -2.6092
C	 -2.0265   -1.9364    4.0165
O	 -2.9529   -3.0092    4.1511
O	 -6.3742    2.1801   -1.3715
H	 -5.4578   -1.4320   -3.9654
H	 -3.9615   -1.2881   -3.0356
H	 -5.3530   -2.2537   -2.4048
H	 -5.4573    2.7969    1.0324
H	 -3.9959    1.4108    2.3967
H	 -3.9661   -1.6147   -0.6664
H	 -3.5163   -2.1123    1.8014
H	 -3.5823   -0.5000    3.7361
H	  0.2113   -1.1108   -0.5155
H	  2.0266    2.1286    1.7033
H	  0.1909    2.0094    3.3433
H	  2.5036    1.6866   -0.8080
H	  2.3463   -1.3155   -1.5293
H	  8.2420    0.7125   -2.1948
H	  5.8893    0.7000    1.4150
H	  9.0654    1.0020   -0.0975
H	  5.4180    0.1273   -4.2026
H	  1.5015   -0.2442   -3.5032
H	 -1.7428   -1.5972    5.0191
H	 -1.1191   -2.3151    3.5348
H	 -2.5051   -3.7070    4.6618
H	 -6.5389    3.0106   -0.9003
10	10	10	10	10	10	10	10	10	10	10	10	10	10	10	10	10	10	10	10	10	10	10	10	10	10	10	10	10	10	10	10	10	10	10	10	10	10	10	10	10	10	10	10	10	10	10	10	10	10	10	10	10	10	10	10	10	10	10	10	10	10	10	10	10	10	10	10	10	10	10	10	10	10	10	10	10	10	10	10	10	10	10	10	10	10	10	10	10	10	10	10	10	10	10	10	10	10	10	10	10	10	10	10	10	10	10	10	10	10	10	10	10	10	10	10	10	10	10	10	10	10	10	10	10	10	10	10	10	10	10	10	10	10	10	10	10	10	10	10	10	10	10	10	10	10	10	10	10	10	10	10	10	10	10	10	10	10	10	10	10	10	10	10	10	10
COC1=C(C=CC(=C1)[C@@H]2[C@H](OC3=C(O2)C=C(C=C3)[C@@H]4[C@H](C(=O)C5=C(C=C(C=C5O4)O)O)O)CO)O	COC1=C(C=CC(=C1)[C@@H]2[C@H](OC3=C(O2)C=C(C=C3)[C@@H]4[C@H](C(=O)C5=C(C=C(C=C5O4)O)O)O)CO)O
COC1=C(C=CC(=C1)[C@@H]2[C@H](OC3=C(O2)C=C(C=C3)[C@@H]4[C@H](C(=O)C5=C(C=C(C=C5O4)O)O)O)CO)O	COC1=C(C=CC(=C1)[C@@H]2[C@H](OC3=C(O2)C=C(C=C3)[C@@H]4[C@H](C(=O)C5=C(C=C(C=C5O4)O)O)O)CO)O
O=C1CC(c2ccc3c(c2)OC(c2ccccc2)CO3)Oc2ccccc21
