58
covid	1837	99	99	99	99	99	99	99	99	99	99	99	99	99	99	99
C	 -7.7137   -2.1703   -0.3002
O	 -7.2434   -0.9452   -0.8428
C	 -6.0129   -0.4926   -0.4431
C	 -5.5987    0.7369   -0.9801
C	 -4.3522    1.2608   -0.6181
C	 -3.5032    0.6016    0.2617
C	 -3.9078   -0.6186    0.7972
C	 -5.1682   -1.1647    0.4415
C	 -2.9831   -1.2050    1.6669
N	 -1.8117   -0.6346    1.9712
C	 -1.5072    0.5441    1.4161
N	 -2.3285    1.1644    0.5585
N	 -0.2926    1.1529    1.7427
C	  0.2726    2.0085    0.6751
C	  0.9682    1.1372   -0.3945
N	  1.9759    0.2573    0.2270
C	  1.4061   -0.6057    1.2808
C	  0.7026    0.2540    2.3594
C	  3.2970    0.7161    0.2430
O	  3.5833    1.8237   -0.2199
C	  4.3801   -0.2015    0.8607
C	  4.4980   -1.5295    0.1154
O	  5.0202   -1.3693   -1.2075
C	  6.0950   -0.5213   -1.2229
C	  6.8862   -0.5336   -2.3705
C	  8.0100    0.2902   -2.4501
C	  8.3381    1.1281   -1.3835
C	  7.5373    1.1498   -0.2404
C	  6.4091    0.3345   -0.1653
O	  5.6608    0.4272    0.9780
N	 -3.2373   -2.4399    2.2887
O	 -6.4753    1.3444   -1.8442
C	 -6.1049    2.6057   -2.3840
H	 -7.0648   -3.0038   -0.5884
H	 -8.7068   -2.3624   -0.7176
H	 -7.8167   -2.1067    0.7880
H	 -4.0049    2.2095   -1.0157
H	 -5.4646   -2.1152    0.8697
H	 -0.4746    2.6673    0.2181
H	  1.0159    2.6720    1.1355
H	  0.2420    0.4891   -0.8991
H	  1.4242    1.7723   -1.1608
H	  0.6936   -1.2802    0.7926
H	  2.1697   -1.2246    1.7532
H	  0.2750   -0.3759    3.1482
H	  1.4558    0.8799    2.8559
H	  4.0785   -0.3955    1.8950
H	  5.1642   -2.2135    0.6573
H	  3.5310   -2.0310    0.0168
H	  6.6307   -1.1883   -3.1987
H	  8.6284    0.2795   -3.3438
H	  9.2114    1.7722   -1.4455
H	  7.7816    1.8142    0.5835
H	 -3.4081   -3.1525    1.5861
H	 -4.0611   -2.3589    2.8776
H	 -6.9191    2.9439   -3.0322
H	 -5.9777    3.3522   -1.5932
H	 -5.2033    2.5217   -2.9996
10	10	10	10	10	10	10	10	10	10	10	10	10	10	10	10	10	10	10	10	10	10	10	10	10	10	10	10	10	10	10	10	10	10	10	10	10	10	10	10	10	10	10	10	10	10	10	10	10	10	10	10	10	10	10	10	10	10	10	10	10	10	10	10	10	10	10	10	10	10	10	10	10	10	10	10	10	10	10	10	10	10	10	10	10	10	10	10	10	10	10	10	10	10	10	10	10	10	10	10	10	10	10	10	10	10	10	10	10	10	10	10	10	10	10	10	10	10	10	10	10	10	10	10	10	10	10	10	10	10	10	10	10	10	10	10	10	10	10	10	10	10	10	10	10	10	10	10	10	10	10	10	10	10	10	10	10	10	10	10	10	10	10	10	10	10	10	10	10
COC1=C(C=C2C(=C1)C(=NC(=N2)N3CCN(CC3)C(=O)C4COC5=CC=CC=C5O4)N)OC	COC1=C(C=C2C(=C1)C(=NC(=N2)N3CCN(CC3)C(=O)C4COC5=CC=CC=C5O4)N)OC
COC1=C(C=C2C(=C1)C(=NC(=N2)N3CCN(CC3)C(=O)C4COC5=CC=CC=C5O4)N)OC	COC1=C(C=C2C(=C1)C(=NC(=N2)N3CCN(CC3)C(=O)C4COC5=CC=CC=C5O4)N)OC
O=C(C1COc2ccccc2O1)N1CCN(c2ncc3ccccc3n2)CC1
