50
covid	1883	99	99	99	99	99	99	99	99	99	99	99	99	99	99	99
C	 -1.6057    0.8966   -1.4771
C	 -0.7575    0.3355   -2.6306
N	 -0.1366   -0.9643   -2.3278
C	 -1.1960   -1.9391   -2.0329
C	 -2.3007   -1.4417   -1.1389
C	 -2.5265   -0.1433   -0.8590
N	 -3.5465    0.3077   -0.0238
C	 -4.7703   -0.3179    0.3531
C	 -5.3836   -1.4834   -0.0679
C	 -6.6275   -1.8181    0.4883
C	 -7.2498   -0.9825    1.4333
C	 -6.6488    0.2127    1.8262
C	 -5.4266    0.5129    1.2623
N	 -4.6684    1.6528    1.4486
C	 -3.5129    1.5786    0.6605
O	 -2.6653    2.4583    0.6322
C	  0.8601   -0.9170   -1.2447
C	  2.0701   -0.0298   -1.5656
C	  3.1352   -0.1407   -0.4712
C	  4.3457    0.7328   -0.7570
O	  4.4320    1.4285   -1.7667
C	  5.4718    0.7421    0.2289
C	  5.4457   -0.0188    1.4067
C	  6.5247    0.0280    2.2951
C	  7.6229    0.8306    2.0069
C	  7.6662    1.5901    0.8450
C	  6.5905    1.5464   -0.0447
F	  8.6521    0.8714    2.8624
H	 -0.9364    1.2960   -0.7062
H	 -2.1977    1.7300   -1.8750
H	 -0.0067    1.0729   -2.9347
H	 -1.3970    0.2137   -3.5164
H	 -0.7645   -2.8508   -1.6009
H	 -1.6514   -2.2559   -2.9801
H	 -2.8838   -2.2310   -0.6843
H	 -4.9630   -2.1236   -0.8313
H	 -7.1268   -2.7324    0.1731
H	 -8.2167   -1.2638    1.8449
H	 -7.1311    0.8763    2.5337
H	 -4.8872    2.4446    2.0303
H	  0.4146   -0.6006   -0.2936
H	  1.2394   -1.9350   -1.0843
H	  1.7661    1.0195   -1.6541
H	  2.5019   -0.3232   -2.5308
H	  2.6993    0.1709    0.4848
H	  3.4691   -1.1818   -0.3970
H	  4.6018   -0.6539    1.6590
H	  6.5157   -0.5558    3.2107
H	  8.5322    2.2111    0.6374
H	  6.6279    2.1443   -0.9544
10	10	10	10	10	10	10	10	10	10	10	10	10	10	10	10	10	10	10	10	10	10	10	10	10	10	10	10	10	10	10	10	10	10	10	10	10	10	10	10	10	10	10	10	10	10	10	10	10	10	10	10	10	10	10	10	10	10	10	10	10	10	10	10	10	10	10	10	10	10	10	10	10	10	10	10	10	10	10	10	10	10	10	10	10	10	10	10	10	10	10	10	10	10	10	10	10	10	10	10	10	10	10	10	10	10	10	10	10	10	10	10	10	10	10	10	10	10	10	10	10	10	10	10	10	10	10	10	10	10	10	10	10	10	10	10	10	10	10	10	10	10	10	10	10
C1CN(CC=C1N2C3=CC=CC=C3NC2=O)CCCC(=O)C4=CC=C(C=C4)F	C1CN(CC=C1N2C3=CC=CC=C3NC2=O)CCCC(=O)C4=CC=C(C=C4)F
C1CN(CC=C1N2C3=CC=CC=C3NC2=O)CCCC(=O)C4=CC=C(C=C4)F	C1CN(CC=C1N2C3=CC=CC=C3NC2=O)CCCC(=O)C4=CC=C(C=C4)F
O=C(CCCN1CC=C(n2c(=O)[nH]c3ccccc32)CC1)c1ccccc1
