43
covid	1751	99	99	99	99	99	99	99	99	99	99	99	99	99	99	99
C	  8.8573    0.2016   -0.7731
C	  7.4193   -0.1727   -0.7804
N	  6.9511   -1.3540   -0.4317
N	  5.5742   -1.4152   -0.5257
C	  5.0572   -0.2819   -0.9496
S	  6.2102    0.9421   -1.2855
S	  3.3370   -0.0615   -1.1574
C	  2.7342   -1.2193    0.1046
C	  1.2310   -1.0917    0.2631
C	  0.6381   -0.3822    1.2558
N	 -0.7162   -0.3905    1.4255
C	 -1.6500   -1.2154    0.6934
C	 -2.7695   -0.2322    1.1517
C	 -1.5945    0.5599    1.8276
O	 -1.4450    1.6263    2.3787
N	 -3.5072    0.4926    0.0742
C	 -4.5894    1.2911    0.3584
O	 -5.0350    1.4300    1.4956
C	 -5.2326    1.9533   -0.8308
N	 -6.3483    1.1644   -1.2727
C	 -7.6138    1.1247   -0.7847
N	 -8.2858    0.2240   -1.4658
N	 -7.3968   -0.3089   -2.3717
N	 -6.2104    0.2722   -2.2663
S	 -1.2158   -1.1845   -1.0709
C	  0.4490   -1.8629   -0.7836
C	  1.4399    0.4480    2.2039
O	  2.4136    1.1308    1.9382
O	  0.9963    0.3057    3.4705
H	  9.2975   -0.0290    0.2056
H	  9.3980   -0.3640   -1.5396
H	  9.0127    1.2691   -0.9659
H	  3.2557   -1.0464    1.0514
H	  2.9816   -2.2465   -0.1891
H	 -1.7530   -2.2194    1.1144
H	 -3.4580   -0.6833    1.8812
H	 -3.2021    0.3767   -0.8903
H	 -5.5928    2.9478   -0.5512
H	 -4.5243    2.0712   -1.6570
H	 -7.9780    1.7332    0.0324
H	  0.3747   -2.9161   -0.4878
H	  0.9585   -1.8318   -1.7512
H	  1.5312    0.9445    3.9879
10	10	10	10	10	10	10	10	10	10	10	10	10	10	10	10	10	10	10	10	10	10	10	10	10	10	10	10	10	10	10	10	10	10	10	10	10	10	10	10	10	10	10	10	10	10	10	10	10	10	10	10	10	10	10	10	10	10	10	10	10	10	10	10	10	10	10	10	10	10	10	10	10	10	10	10	10	10	10	10	10	10	10	10	10	10	10	10	10	10	10	10	10	10	10	10	10	10	10	10	10	10	10	10	10	10	10	10	10	10	10	10	10	10	10	10	10	10	10	10	10	10	10	10
CC1=NN=C(S1)SCC2=C(N3[C@@H]([C@@H](C3=O)NC(=O)CN4C=NN=N4)SC2)C(=O)O	CC1=NN=C(S1)SCC2=C(N3[C@@H]([C@@H](C3=O)NC(=O)CN4C=NN=N4)SC2)C(=O)O
CC1=NN=C(S1)SCC2=C(N3[C@@H]([C@@H](C3=O)NC(=O)CN4C=NN=N4)SC2)C(=O)O	CC1=NN=C(S1)SCC2=C(N3[C@@H]([C@@H](C3=O)NC(=O)CN4C=NN=N4)SC2)C(=O)O
O=C(Cn1cnnn1)NC1C(=O)N2C=C(CSc3nncs3)CSC12
