48
covid	1331	99	99	99	99	99	99	99	99	99	99	99	99	99	99	99
C	 -4.1937   -0.4758    0.9487
C	 -5.6478   -0.8972    0.7780
O	 -5.7744   -2.0762   -0.0149
C	 -4.7506   -2.2707   -0.9869
C	 -4.2223   -0.9528   -1.5343
C	 -3.5690   -0.0777   -0.4119
C	 -2.0374   -0.3027   -0.4688
S	 -1.1215    0.1968    0.9761
O	 -1.5527    1.5277    1.3596
O	 -1.1593   -0.8877    1.9365
C	  0.5483    0.3257    0.3831
C	  1.0034    1.5432   -0.1326
C	  2.3177    1.6430   -0.5903
C	  3.1717    0.5412   -0.5061
C	  2.7095   -0.6765    0.0039
C	  1.3959   -0.7834    0.4633
O	  4.4443    0.6990   -1.0057
C	  5.4877    0.2480   -0.2296
C	  5.6012    0.5462    1.1317
C	  6.7058    0.0862    1.8522
C	  7.6960   -0.6533    1.2057
C	  7.5959   -0.9317   -0.1573
C	  6.4920   -0.4726   -0.8784
Cl	  9.0562   -1.2189    2.0944
C	 -3.8485    1.3973   -0.7836
O	 -4.0631    1.7520   -1.9461
N	 -3.7795    2.3392    0.2148
O	 -3.9257    3.6756   -0.2482
H	 -3.6514   -1.3334    1.3652
H	 -4.1356    0.3282    1.6883
H	 -6.2402   -0.0998    0.3154
H	 -6.0971   -1.1101    1.7533
H	 -3.9458   -2.8612   -0.5347
H	 -5.1755   -2.8736   -1.7959
H	 -5.0777   -0.4281   -1.9802
H	 -3.5134   -1.1403   -2.3498
H	 -1.8039   -1.3644   -0.6133
H	 -1.6143    0.2506   -1.3159
H	  0.3527    2.4141   -0.1808
H	  2.6820    2.5814   -1.0017
H	  3.3657   -1.5423    0.0475
H	  1.0495   -1.7269    0.8802
H	  4.8431    1.1393    1.6360
H	  6.7910    0.3132    2.9117
H	  8.3730   -1.4989   -0.6626
H	  6.4136   -0.6790   -1.9425
H	 -3.0921    2.2352    0.9692
H	 -4.1032    3.5520   -1.2069
10	10	10	10	10	10	10	10	10	10	10	10	10	10	10	10	10	10	10	10	10	10	10	10	10	10	10	10	10	10	10	10	10	10	10	10	10	10	10	10	10	10	10	10	10	10	10	10	10	10	10	10	10	10	10	10	10	10	10	10	10	10	10	10	10	10	10	10	10	10	10	10	10	10	10	10	10	10	10	10	10	10	10	10	10	10	10	10	10	10	10	10	10	10	10	10	10	10	10	10	10	10	10	10	10	10	10	10	10	10	10	10	10	10	10	10	10	10	10	10	10	10	10	10	10	10	10	10	10	10	10	10	10	10	10	10	10	10	10
C1COCCC1(CS(=O)(=O)C2=CC=C(C=C2)OC3=CC=C(C=C3)Cl)C(=O)NO	C1COCCC1(CS(=O)(=O)C2=CC=C(C=C2)OC3=CC=C(C=C3)Cl)C(=O)NO
C1COCCC1(CS(=O)(=O)C2=CC=C(C=C2)OC3=CC=C(C=C3)Cl)C(=O)NO	C1COCCC1(CS(=O)(=O)C2=CC=C(C=C2)OC3=CC=C(C=C3)Cl)C(=O)NO
O=S(=O)(CC1CCOCC1)c1ccc(Oc2ccccc2)cc1
