76
covid	1479	99	99	99	99	99	99	99	99	99	99	99	99	99	99	99
C	  4.9381    0.9422   -3.1369
C	  5.5991    1.1511   -1.7570
C	  5.7298    2.6780   -1.5515
C	  4.8035    0.5576   -0.5798
C	  5.2882    0.7049    0.7342
C	  4.5876    0.1919    1.8302
C	  3.3805   -0.4932    1.6517
C	  2.9033   -0.6641    0.3487
C	  3.5995   -0.1428   -0.7492
C	  2.6194   -1.0699    2.8273
C	  2.1614   -0.0362    3.8641
C	  1.1407    1.0057    3.3877
C	 -0.2743    0.4488    3.1688
N	 -0.3996   -0.3567    1.9490
C	 -1.4956   -1.3268    2.0248
C	 -2.8926   -0.7218    1.8655
C	 -3.0772    0.1638    0.6078
C	 -1.8680    1.1299    0.5380
C	 -0.5106    0.4480    0.7226
C	 -3.3604   -0.6340   -0.7319
C	 -3.4386    0.3397   -1.9295
C	 -4.4787    1.2863   -2.0173
C	 -4.5575    2.1733   -3.0942
C	 -3.5994    2.1327   -4.1034
C	 -2.5630    1.2059   -4.0381
C	 -2.4839    0.3171   -2.9628
C	 -4.6351   -1.5146   -0.7289
C	 -4.7829   -2.5152   -1.7146
C	 -5.9203   -3.3229   -1.7701
C	 -6.9452   -3.1426   -0.8481
C	 -6.8366   -2.1468    0.1189
C	 -5.6985   -1.3354    0.1720
O	 -2.2472   -1.5194   -0.9340
O	  3.4801   -2.0010    3.5018
C	  6.9672    0.4594   -1.8559
O	  7.1649   -0.7429   -1.9654
O	  8.0241    1.2964   -1.8592
H	  5.5537    1.3736   -3.9370
H	  4.8192   -0.1215   -3.3757
H	  3.9514    1.4165   -3.1897
H	  6.2199    3.1567   -2.4075
H	  4.7451    3.1458   -1.4282
H	  6.3271    2.9291   -0.6685
H	  6.2268    1.2217    0.9236
H	  4.9984    0.3206    2.8297
H	  1.9759   -1.2076    0.1742
H	  3.1701   -0.3072   -1.7341
H	  1.7676   -1.6605    2.4793
H	  1.7515   -0.5670    4.7348
H	  3.0383    0.4962    4.2581
H	  1.0682    1.7673    4.1761
H	  1.5117    1.5338    2.5025
H	 -0.9925    1.2760    3.1769
H	 -0.5176   -0.1608    4.0493
H	 -1.4486   -1.8739    2.9749
H	 -1.3278   -2.0977    1.2666
H	 -3.6263   -1.5324    1.8957
H	 -3.1023   -0.1022    2.7482
H	 -3.9519    0.8035    0.7923
H	 -1.8594    1.7003   -0.3958
H	 -1.9947    1.8867    1.3230
H	 -0.3046   -0.1974   -0.1392
H	  0.2770    1.2089    0.6913
H	 -5.2444    1.3378   -1.2461
H	 -5.3694    2.8945   -3.1439
H	 -3.6610    2.8204   -4.9424
H	 -1.8143    1.1690   -4.8256
H	 -1.6624   -0.3957   -2.9374
H	 -4.0062   -2.6579   -2.4657
H	 -6.0074   -4.0846   -2.5408
H	 -7.8338   -3.7667   -0.8915
H	 -7.6443   -1.9933    0.8310
H	 -5.6736   -0.5589    0.9314
H	 -2.4954   -2.3863   -0.5712
H	  4.0209   -2.4273    2.8138
H	  8.7924    0.6939   -1.9408
10	10	10	10	10	10	10	10	10	10	10	10	10	10	10	10	10	10	10	10	10	10	10	10	10	10	10	10	10	10	10	10	10	10	10	10	10	10	10	10	10	10	10	10	10	10	10	10	10	10	10	10	10	10	10	10	10	10	10	10	10	10	10	10	10	10	10	10	10	10	10	10	10	10	10	10	10	10	10	10	10	10	10	10	10	10	10	10	10	10	10	10	10	10	10	10	10	10	10	10	10	10	10	10	10	10	10	10	10	10	10	10	10	10	10	10	10	10	10	10	10	10	10	10	10	10	10	10	10	10	10	10	10	10	10	10	10	10	10	10	10	10	10	10	10	10	10	10	10	10	10	10	10	10	10	10	10	10	10	10	10	10	10	10	10	10	10	10	10	10	10	10	10	10	10	10	10	10	10	10	10	10	10	10	10	10	10	10	10	10	10	10	10	10	10	10	10	10	10	10	10	10	10	10	10	10	10	10	10	10	10	10	10	10	10	10	10	10	10	10	10	10	10
CC(C)(C1=CC=C(C=C1)C(CCCN2CCC(CC2)C(C3=CC=CC=C3)(C4=CC=CC=C4)O)O)C(=O)O	CC(C)(C1=CC=C(C=C1)C(CCCN2CCC(CC2)C(C3=CC=CC=C3)(C4=CC=CC=C4)O)O)C(=O)O
CC(C)(C1=CC=C(C=C1)C(CCCN2CCC(CC2)C(C3=CC=CC=C3)(C4=CC=CC=C4)O)O)C(=O)O	CC(C)(C1=CC=C(C=C1)C(CCCN2CCC(CC2)C(C3=CC=CC=C3)(C4=CC=CC=C4)O)O)C(=O)O
c1ccc(CCCCN2CCC(C(c3ccccc3)c3ccccc3)CC2)cc1
