43
covid	1363	99	99	99	99	99	99	99	99	99	99	99	99	99	99	99
C	  7.4485    0.3083    0.8949
C	  6.1208   -0.1010    0.3260
C	  5.5889    0.5731   -0.7823
C	  4.3742    0.1708   -1.3395
C	  3.6911   -0.9143   -0.7851
C	  4.2209   -1.6135    0.3022
C	  5.4362   -1.2049    0.8536
S	  2.1326   -1.4285   -1.4871
O	  1.9702   -2.8257   -1.1538
O	  2.1106   -0.9379   -2.8471
N	  1.0941   -0.5146   -0.5586
C	 -0.2864   -0.5486   -0.7343
O	 -0.8315   -1.2553   -1.5673
N	 -0.9410    0.3145    0.1289
N	 -2.3467    0.2991    0.2307
C	 -2.8453    0.9723    1.4331
C	 -4.3313    1.1916    1.1446
C	 -5.2301    0.0330    1.5943
C	 -5.3499   -0.8795    0.3857
C	 -5.3984    0.1000   -0.7742
C	 -4.4303    1.2266   -0.3947
C	 -2.9969    1.0031   -0.8841
H	  7.6089    1.3849    0.7754
H	  7.4976    0.0899    1.9669
H	  8.2549   -0.2290    0.3864
H	  6.1256    1.4108   -1.2240
H	  3.9778    0.6971   -2.2055
H	  3.7046   -2.4778    0.7153
H	  5.8531   -1.7592    1.6925
H	  1.5221    0.1043    0.1129
H	 -0.4061    0.7405    0.8722
H	 -2.6718    0.3774    2.3356
H	 -2.3543    1.9457    1.5666
H	 -4.6677    2.1290    1.6013
H	 -4.8519   -0.4931    2.4759
H	 -6.2227    0.4265    1.8471
H	 -6.2426   -1.5100    0.4314
H	 -4.4765   -1.5358    0.3050
H	 -5.1580   -0.3755   -1.7297
H	 -6.4127    0.5104   -0.8566
H	 -4.8056    2.1880   -0.7626
H	 -2.5168    1.9754   -1.0593
H	 -2.9582    0.4319   -1.8170
10	10	10	10	10	10	10	10	10	10	10	10	10	10	10	10	10	10	10	10	10	10	10	10	10	10	10	10	10	10	10	10	10	10	10	10	10	10	10	10	10	10	10	10	10	10	10	10	10	10	10	10	10	10	10	10	10	10	10	10	10	10	10	10	10	10	10	10	10	10	10	10	10	10	10	10	10	10	10	10	10	10	10	10	10	10	10	10	10	10	10	10	10	10	10	10	10	10	10	10	10	10	10	10	10	10	10	10	10	10	10	10	10	10	10	10	10	10	10	10	10	10	10	10
CC1=CC=C(C=C1)S(=O)(=O)NC(=O)NN2CC3CCCC3C2	CC1=CC=C(C=C1)S(=O)(=O)NC(=O)NN2CC3CCCC3C2
CC1=CC=C(C=C1)S(=O)(=O)NC(=O)NN2CC3CCCC3C2	CC1=CC=C(C=C1)S(=O)(=O)NC(=O)NN2CC3CCCC3C2
O=C(NN1CC2CCCC2C1)NS(=O)(=O)c1ccccc1
