37
covid	1774	99	99	99	99	99	99	99	99	99	99	99	99	99	99	99
C	 -0.8948    2.9782   -0.1638
C	 -0.5575    1.5175   -0.1064
C	 -1.4238    0.4139   -0.0350
C	 -2.8326    0.1881    0.0105
C	 -3.9661    1.0273    0.0011
C	 -5.2447    0.4605    0.0587
C	 -5.4076   -0.9209    0.1251
C	 -4.3030   -1.7771    0.1360
C	 -3.0300   -1.1969    0.0779
N	 -1.7855   -1.7920    0.0735
C	 -0.8249   -0.8319    0.0062
C	  0.7199   -0.9797   -0.0260
C	  1.5441    0.1330   -0.0968
C	  0.8655    1.3623   -0.1351
C	  1.4435    2.7121   -0.2105
O	  2.6172    3.0202   -0.2538
N	  0.3954    3.6061   -0.2245
C	  2.8846   -0.3672   -0.1079
C	  4.1657    0.2211   -0.1666
C	  5.3081   -0.5884   -0.1588
C	  5.1961   -1.9735   -0.0936
C	  3.9440   -2.5894   -0.0344
C	  2.8103   -1.7662   -0.0430
N	  1.4765   -2.1073    0.0059
H	 -1.4588    3.2340   -1.0644
H	 -1.4137    3.3151    0.7372
H	 -3.8567    2.1059   -0.0502
H	 -6.1191    1.1070    0.0515
H	 -6.4100   -1.3412    0.1692
H	 -4.4363   -2.8529    0.1878
H	 -1.6271   -2.7875    0.1144
H	  0.5651    4.6014   -0.2736
H	  4.2781    1.3003   -0.2180
H	  6.2900   -0.1238   -0.2044
H	  6.0957   -2.5845   -0.0887
H	  3.8615   -3.6701    0.0164
H	  1.1309   -3.0536    0.0572
10	10	10	10	10	10	10	10	10	10	10	10	10	10	10	10	10	10	10	10	10	10	10	10	10	10	10	10	10	10	10	10	10	10	10	10	10	10	10	10	10	10	10	10	10	10	10	10	10	10	10	10	10	10	10	10	10	10	10	10	10	10	10	10	10	10	10	10	10	10	10	10	10	10	10	10	10	10	10	10	10	10	10	10	10	10	10	10	10	10	10	10	10	10	10	10	10	10	10	10	10	10	10	10	10	10
C1C2=C3C4=CC=CC=C4NC3=C5C(=C2C(=O)N1)C6=CC=CC=C6N5	C1C2=C3C4=CC=CC=C4NC3=C5C(=C2C(=O)N1)C6=CC=CC=C6N5
C1C2=C3C4=CC=CC=C4NC3=C5C(=C2C(=O)N1)C6=CC=CC=C6N5	C1C2=C3C4=CC=CC=C4NC3=C5C(=C2C(=O)N1)C6=CC=CC=C6N5
O=C1NCc2c1c1c3ccccc3[nH]c1c1[nH]c3ccccc3c21
