71
covid	1416	99	99	99	99	99	99	99	99	99	99	99	99	99	99	99
C	  5.8626    2.7028   -1.2322
C	  6.7479    1.5694   -0.7909
C	  6.2864    0.2988   -0.3877
C	  7.2106   -0.6257    0.1666
C	  8.5768   -0.3021    0.2298
C	  9.0358    0.9206   -0.2386
C	  8.1296    1.8471   -0.7400
C	  6.7881   -1.9832    0.6698
N	  4.9389   -0.1178   -0.4529
C	  3.9670    0.1890   -1.3879
O	  4.0892    0.9117   -2.3727
C	  2.6541   -0.5830   -1.1493
N	  2.6493   -1.2720    0.1763
C	  1.6769   -2.3840    0.1596
C	  0.1900   -1.9692   -0.0020
N	 -0.1251   -0.6062    0.4814
C	  0.7425   -0.2685    1.6186
C	  2.2541   -0.3235    1.2535
C	 -1.5609   -0.4870    0.7774
C	 -2.0235    0.9701    0.9024
C	 -3.5066    1.1303    1.2824
C	 -4.5140    0.9321    0.1183
C	 -4.7083   -0.5181   -0.3134
C	 -4.5813   -0.8581   -1.6735
C	 -4.7577   -2.1759   -2.0980
C	 -5.0696   -3.1588   -1.1678
C	 -5.2139   -2.8484    0.1781
C	 -5.0388   -1.5305    0.6052
F	 -5.2361   -4.4240   -1.5745
C	 -5.8663    1.5981    0.3941
C	 -6.5333    2.2619   -0.6533
C	 -7.7757    2.8630   -0.4420
C	 -8.3620    2.7980    0.8145
C	 -7.7308    2.1420    1.8631
C	 -6.4877    1.5405    1.6543
F	 -9.5552    3.3728    1.0178
H	  4.8878    2.6711   -0.7371
H	  6.3023    3.6676   -0.9493
H	  5.7454    2.7006   -2.3196
H	  9.2946   -1.0117    0.6351
H	 10.0950    1.1604   -0.1983
H	  8.5016    2.8136   -1.0747
H	  7.6460   -2.5743    1.0094
H	  6.2983   -2.5515   -0.1278
H	  6.1083   -1.8776    1.5213
H	  4.6640   -0.9256    0.1010
H	  2.6120   -1.3291   -1.9527
H	  1.8137    0.1097   -1.2710
H	  1.7811   -2.9214    1.1142
H	  1.9453   -3.1158   -0.6140
H	 -0.0731   -2.0129   -1.0664
H	 -0.4196   -2.7230    0.5150
H	  0.5378    0.7410    1.9892
H	  0.5507   -0.9607    2.4498
H	  2.6036    0.6892    1.0186
H	  2.8010   -0.6160    2.1587
H	 -1.8169   -1.0467    1.6852
H	 -2.1083   -0.9441   -0.0508
H	 -1.4462    1.4697    1.6883
H	 -1.8147    1.5126   -0.0274
H	 -3.6147    2.1618    1.6472
H	 -3.7353    0.4847    2.1386
H	 -4.0757    1.4775   -0.7308
H	 -4.3397   -0.0964   -2.4126
H	 -4.6547   -2.4397   -3.1460
H	 -5.4678   -3.6320    0.8851
H	 -5.1701   -1.3039    1.6601
H	 -6.0885    2.3122   -1.6449
H	 -8.2895    3.3755   -1.2489
H	 -8.2110    2.0988    2.8353
H	 -6.0156    1.0243    2.4863
10	10	10	10	10	10	10	10	10	10	10	10	10	10	10	10	10	10	10	10	10	10	10	10	10	10	10	10	10	10	10	10	10	10	10	10	10	10	10	10	10	10	10	10	10	10	10	10	10	10	10	10	10	10	10	10	10	10	10	10	10	10	10	10	10	10	10	10	10	10	10	10	10	10	10	10	10	10	10	10	10	10	10	10	10	10	10	10	10	10	10	10	10	10	10	10	10	10	10	10	10	10	10	10	10	10	10	10	10	10	10	10	10	10	10	10	10	10	10	10	10	10	10	10	10	10	10	10	10	10	10	10	10	10	10	10	10	10	10	10	10	10	10	10	10	10	10	10	10	10	10	10	10	10	10	10	10	10	10	10	10	10	10	10	10	10	10	10	10	10	10	10	10	10	10	10	10	10	10	10	10	10	10	10	10	10	10	10	10	10	10	10	10	10	10	10	10	10	10	10	10	10	10	10	10	10	10	10
CC1=C(C(=CC=C1)C)NC(=O)CN2CCN(CC2)CCCC(C3=CC=C(C=C3)F)C4=CC=C(C=C4)F	CC1=C(C(=CC=C1)C)NC(=O)CN2CCN(CC2)CCCC(C3=CC=C(C=C3)F)C4=CC=C(C=C4)F
CC1=C(C(=CC=C1)C)NC(=O)CN2CCN(CC2)CCCC(C3=CC=C(C=C3)F)C4=CC=C(C=C4)F	CC1=C(C(=CC=C1)C)NC(=O)CN2CCN(CC2)CCCC(C3=CC=C(C=C3)F)C4=CC=C(C=C4)F
O=C(CN1CCN(CCCC(c2ccccc2)c2ccccc2)CC1)Nc1ccccc1
