67
covid	1383	99	99	99	99	99	99	99	99	99	99	99	99	99	99	99
C	 -2.3649   -2.2000   -1.5372
N	 -2.0536   -2.2075   -0.1133
C	 -1.8992   -3.5415    0.4558
C	 -2.1997   -1.1403    0.7866
O	 -2.0942   -1.3805    1.9979
C	 -2.3649    0.3621    0.2794
C	 -0.9628    0.6820   -0.3739
C	  0.2403    0.4732    0.5734
N	  1.5038    0.9875    0.0043
C	  2.5651    1.0345    1.0221
C	  3.1479   -0.3358    1.3860
C	  3.6220   -1.1367    0.1559
C	  2.4844   -1.1456   -0.8854
C	  1.9784    0.2643   -1.1840
C	  4.9728   -0.7305   -0.4522
C	  5.7619    0.3229    0.0378
C	  6.9942    0.6406   -0.5476
C	  7.4665   -0.1005   -1.6251
C	  6.7213   -1.1638   -2.1182
C	  5.4912   -1.4771   -1.5324
Cl	  8.9811    0.2911   -2.3387
O	  3.7905   -2.4964    0.6030
C	 -2.6793    1.3735    1.4451
C	 -3.5117    1.0170    2.5257
C	 -3.8354    1.9266    3.5380
C	 -3.3560    3.2293    3.4860
C	 -2.5634    3.6244    2.4155
C	 -2.2393    2.7132    1.4037
C	 -3.5591    0.5050   -0.7101
C	 -3.5009    1.3382   -1.8426
C	 -4.5964    1.4657   -2.7021
C	 -5.7775    0.7783   -2.4403
C	 -5.8697   -0.0309   -1.3131
C	 -4.7764   -0.1605   -0.4535
H	 -3.3872   -2.5651   -1.6723
H	 -2.2694   -1.2227   -1.9980
H	 -1.6747   -2.8734   -2.0552
H	 -1.4625   -3.5175    1.4576
H	 -2.8849   -4.0136    0.5079
H	 -1.2408   -4.1358   -0.1850
H	 -0.8168    0.0495   -1.2536
H	 -0.9236    1.7057   -0.7607
H	  0.0428    1.0136    1.5056
H	  0.3363   -0.5834    0.8411
H	  2.1981    1.5268    1.9315
H	  3.3553    1.6954    0.6494
H	  3.9559   -0.2228    2.1192
H	  2.3822   -0.9181    1.9177
H	  1.6583   -1.7717   -0.5224
H	  2.7930   -1.6240   -1.8220
H	  1.2010    0.2208   -1.9534
H	  2.7859    0.8491   -1.6439
H	  5.4500    0.9236    0.8871
H	  7.5796    1.4668   -0.1517
H	  7.0890   -1.7575   -2.9507
H	  4.9377   -2.3315   -1.9209
H	  4.6745   -2.5618    1.0044
H	 -3.9277    0.0150    2.6045
H	 -4.4671    1.6109    4.3641
H	 -3.6085    3.9363    4.2709
H	 -2.1994    4.6470    2.3579
H	 -1.6405    3.0902    0.5802
H	 -2.6096    1.9126   -2.0780
H	 -4.5287    2.1139   -3.5722
H	 -6.6296    0.8857   -3.1060
H	 -6.7962   -0.5553   -1.0939
H	 -4.8895   -0.7904    0.4270
10	10	10	10	10	10	10	10	10	10	10	10	10	10	10	10	10	10	10	10	10	10	10	10	10	10	10	10	10	10	10	10	10	10	10	10	10	10	10	10	10	10	10	10	10	10	10	10	10	10	10	10	10	10	10	10	10	10	10	10	10	10	10	10	10	10	10	10	10	10	10	10	10	10	10	10	10	10	10	10	10	10	10	10	10	10	10	10	10	10	10	10	10	10	10	10	10	10	10	10	10	10	10	10	10	10	10	10	10	10	10	10	10	10	10	10	10	10	10	10	10	10	10	10	10	10	10	10	10	10	10	10	10	10	10	10	10	10	10	10	10	10	10	10	10	10	10	10	10	10	10	10	10	10	10	10	10	10	10	10	10	10	10	10	10	10	10	10	10	10	10	10	10	10	10	10	10	10	10	10	10	10	10	10	10	10	10	10	10	10	10	10	10	10	10	10
CN(C)C(=O)C(CCN1CCC(CC1)(C2=CC=C(C=C2)Cl)O)(C3=CC=CC=C3)C4=CC=CC=C4	CN(C)C(=O)C(CCN1CCC(CC1)(C2=CC=C(C=C2)Cl)O)(C3=CC=CC=C3)C4=CC=CC=C4
CN(C)C(=O)C(CCN1CCC(CC1)(C2=CC=C(C=C2)Cl)O)(C3=CC=CC=C3)C4=CC=CC=C4	CN(C)C(=O)C(CCN1CCC(CC1)(C2=CC=C(C=C2)Cl)O)(C3=CC=CC=C3)C4=CC=CC=C4
c1ccc(C2CCN(CCC(c3ccccc3)c3ccccc3)CC2)cc1
