31
covid	1939	99	99	99	99	99	99	99	99	99	99	99	99	99	99	99
C	 -3.1608   -0.0807    2.2543
C	 -2.1452   -1.0057    2.4819
C	 -1.1718   -1.2620    1.5114
C	 -1.2546   -0.5548    0.3030
C	 -2.2617    0.3740    0.0494
C	 -3.2319    0.6161    1.0433
C	 -2.0057    0.8639   -1.2674
N	 -0.9150    0.2751   -1.7963
N	 -0.4787   -0.5593   -0.8297
C	  0.7086   -1.3734   -1.0816
C	  1.9573   -0.7527   -0.4933
C	  2.7655   -1.4061    0.4524
C	  3.9149   -0.7912    0.9608
C	  4.2743    0.4794    0.5223
C	  3.5007    1.1411   -0.4244
C	  2.3539    0.5273   -0.9317
Cl	  5.6884    1.2321    1.1486
Cl	  2.4089   -2.9954    1.0293
C	 -2.7918    1.8659   -1.9919
O	 -3.7978    2.4244   -1.5704
O	 -2.3350    2.1788   -3.2310
H	 -3.9075    0.1032    3.0234
H	 -2.1073   -1.5379    3.4302
H	 -0.3866   -1.9853    1.7021
H	 -4.0303    1.3352    0.8759
H	  0.4872   -2.3731   -0.6993
H	  0.8247   -1.4716   -2.1681
H	  4.5312   -1.3042    1.6948
H	  3.7806    2.1321   -0.7734
H	  1.7618    1.0612   -1.6765
H	 -2.9766    2.8436   -3.5479
10	10	10	10	10	10	10	10	10	10	10	10	10	10	10	10	10	10	10	10	10	10	10	10	10	10	10	10	10	10	10	10	10	10	10	10	10	10	10	10	10	10	10	10	10	10	10	10	10	10	10	10	10	10	10	10	10	10	10	10	10	10	10	10	10	10	10	10	10	10	10	10	10	10	10	10	10	10	10	10	10	10	10	10	10	10	10	10
C1=CC=C2C(=C1)C(=NN2CC3=C(C=C(C=C3)Cl)Cl)C(=O)O	C1=CC=C2C(=C1)C(=NN2CC3=C(C=C(C=C3)Cl)Cl)C(=O)O
C1=CC=C2C(=C1)C(=NN2CC3=C(C=C(C=C3)Cl)Cl)C(=O)O	C1=CC=C2C(=C1)C(=NN2CC3=C(C=C(C=C3)Cl)Cl)C(=O)O
c1ccc(Cn2ncc3ccccc32)cc1
