40
covid	1061	99	99	99	99	99	99	99	99	99	99	99	99	99	99	99
C	 -1.8880    1.4973   -0.2162
C	 -3.0487    2.2802   -0.8476
O	 -4.1799    2.4436    0.0190
C	 -4.3047    1.3924    0.9852
C	 -3.7624    0.0376    0.5029
N	 -2.3270    0.1359    0.1697
C	 -1.4297   -0.9334    0.2225
C	 -1.7927   -2.2128    0.4036
C	 -0.7832   -3.2796    0.4483
O	 -1.1079   -4.4487    0.6132
C	  0.6158   -2.8697    0.2882
C	  0.8979   -1.5177    0.1081
O	 -0.0953   -0.5698    0.0660
C	  2.2288   -1.0835   -0.0521
C	  3.2502   -2.0530   -0.0264
C	  2.9605   -3.4080    0.1552
C	  1.6403   -3.8194    0.3134
C	  2.5733    0.3367   -0.2431
C	  3.2072    0.7720   -1.4183
C	  3.5352    2.1179   -1.6014
C	  3.2358    3.0498   -0.6106
C	  2.6089    2.6379    0.5628
C	  2.2813    1.2920    0.7447
H	 -1.5267    2.0141    0.6805
H	 -1.0697    1.4538   -0.9439
H	 -2.7132    3.2802   -1.1407
H	 -3.3983    1.7741   -1.7552
H	 -3.7795    1.7111    1.8934
H	 -5.3662    1.3037    1.2377
H	 -4.3066   -0.2876   -0.3912
H	 -3.9288   -0.6961    1.2991
H	 -2.8178   -2.5346    0.5134
H	  4.2901   -1.7486   -0.1391
H	  3.7652   -4.1391    0.1753
H	  1.4100   -4.8732    0.4549
H	  3.4415    0.0608   -2.2080
H	  4.0229    2.4370   -2.5189
H	  3.4917    4.0966   -0.7525
H	  2.3756    3.3620    1.3389
H	  1.7938    0.9883    1.6692
10	10	10	10	10	10	10	10	10	10	10	10	10	10	10	10	10	10	10	10	10	10	10	10	10	10	10	10	10	10	10	10	10	10	10	10	10	10	10	10	10	10	10	10	10	10	10	10	10	10	10	10	10	10	10	10	10	10	10	10	10	10	10	10	10	10	10	10	10	10	10	10	10	10	10	10	10	10	10	10	10	10	10	10	10	10	10	10	10	10	10	10	10	10	10	10	10	10	10	10	10	10	10	10	10	10	10	10	10	10	10	10	10	10	10
C1COCCN1C2=CC(=O)C3=C(O2)C(=CC=C3)C4=CC=CC=C4	C1COCCN1C2=CC(=O)C3=C(O2)C(=CC=C3)C4=CC=CC=C4
C1COCCN1C2=CC(=O)C3=C(O2)C(=CC=C3)C4=CC=CC=C4	C1COCCN1C2=CC(=O)C3=C(O2)C(=CC=C3)C4=CC=CC=C4
O=c1cc(N2CCOCC2)oc2c(-c3ccccc3)cccc12
