62
covid	1997	99	99	99	99	99	99	99	99	99	99	99	99	99	99	99
C	 -4.3254    2.1684   -1.5044
C	 -3.8059    0.7668   -1.3177
C	 -3.3172    0.2690   -0.1631
C	 -2.8240   -1.1611   -0.0203
O	 -3.1922   -2.0624   -1.0804
C	 -3.5472   -1.5165   -2.2808
C	 -3.8389   -0.1593   -2.4699
C	 -4.1849    0.2608   -3.7644
C	 -4.2445   -0.6504   -4.8185
C	 -3.9660   -1.9947   -4.6191
C	 -3.6175   -2.4268   -3.3424
O	 -4.5925   -0.1737   -6.0483
C	 -1.3173   -1.2587    0.2038
C	 -0.4057   -1.0647   -0.8436
C	  0.9702   -1.1336   -0.6106
C	  1.4659   -1.3841    0.6697
C	  0.5694   -1.5727    1.7195
C	 -0.8099   -1.5102    1.4883
O	  2.8296   -1.4219    0.7586
C	  3.3939   -1.5598    2.0655
C	  4.9284   -1.5256    1.9616
N	  5.4510   -0.1552    1.8333
C	  6.9211   -0.1780    1.6113
C	  6.7136    0.9347    0.5612
C	  5.2842    0.3576    0.4481
C	  7.5675    0.8503   -0.6772
F	  8.8491    1.1429   -0.3266
C	 -3.2820    1.0696    1.0766
C	 -2.2155    1.9372    1.3351
C	 -2.2024    2.6870    2.5070
C	 -3.2397    2.5908    3.4303
C	 -4.3077    1.7301    3.1739
C	 -4.3307    0.9735    2.0011
O	 -1.1436    3.5193    2.7176
H	 -3.7002    2.7182   -2.2160
H	 -5.3554    2.1502   -1.8772
H	 -4.3433    2.7535   -0.5813
H	 -3.3214   -1.5930    0.8591
H	 -4.4179    1.2996   -3.9790
H	 -4.0129   -2.7125   -5.4313
H	 -3.3934   -3.4758   -3.1664
H	 -4.6108   -0.9162   -6.6756
H	 -0.7582   -0.8535   -1.8501
H	  1.6610   -0.9824   -1.4363
H	  0.9056   -1.7667    2.7322
H	 -1.4887   -1.6468    2.3277
H	  3.1036   -2.5330    2.4805
H	  3.0434   -0.7599    2.7303
H	  5.3343   -1.9448    2.8904
H	  5.2579   -2.1716    1.1370
H	  7.3270   -1.1138    1.2074
H	  7.5154    0.1116    2.4824
H	  6.7302    1.9408    1.0022
H	  5.1670   -0.4024   -0.3348
H	  4.4923    1.1027    0.3326
H	  7.5625   -0.1495   -1.1231
H	  7.2509    1.5749   -1.4340
H	 -1.3918    2.0277    0.6314
H	 -3.2372    3.1779    4.3432
H	 -5.1269    1.6526    3.8844
H	 -5.1740    0.3154    1.8077
H	 -1.2520    3.9493    3.5817
10	10	10	10	10	10	10	10	10	10	10	10	10	10	10	10	10	10	10	10	10	10	10	10	10	10	10	10	10	10	10	10	10	10	10	10	10	10	10	10	10	10	10	10	10	10	10	10	10	10	10	10	10	10	10	10	10	10	10	10	10	10	10	10	10	10	10	10	10	10	10	10	10	10	10	10	10	10	10	10	10	10	10	10	10	10	10	10	10	10	10	10	10	10	10	10	10	10	10	10	10	10	10	10	10	10	10	10	10	10	10	10	10	10	10	10	10	10	10	10	10	10	10	10	10	10	10	10	10	10	10	10	10	10	10	10	10	10	10	10	10	10	10	10	10	10	10	10	10	10	10	10	10	10	10	10	10	10	10	10	10	10	10	10	10	10	10	10	10	10	10	10	10	10	10	10	10	10	10	10	10
CC1=C([C@@H](OC2=C1C=C(C=C2)O)C3=CC=C(C=C3)OCCN4CC(C4)CF)C5=CC(=CC=C5)O	CC1=C([C@@H](OC2=C1C=C(C=C2)O)C3=CC=C(C=C3)OCCN4CC(C4)CF)C5=CC(=CC=C5)O
CC1=C([C@@H](OC2=C1C=C(C=C2)O)C3=CC=C(C=C3)OCCN4CC(C4)CF)C5=CC(=CC=C5)O	CC1=C([C@@H](OC2=C1C=C(C=C2)O)C3=CC=C(C=C3)OCCN4CC(C4)CF)C5=CC(=CC=C5)O
C1=C(c2ccccc2)C(c2ccc(OCCN3CCC3)cc2)Oc2ccccc21
