42
covid	1904	99	99	99	99	99	99	99	99	99	99	99	99	99	99	99
C	  5.1448   -1.9805    1.7655
C	  4.7543   -1.2729    0.5006
C	  5.6690   -0.9146   -0.4126
C	  5.3359   -0.2388   -1.6773
O	  6.2100    0.0235   -2.4989
O	  4.0043    0.0736   -1.8875
C	  3.0210   -0.2757   -0.9410
C	  3.3451   -0.9481    0.2391
C	  2.2962   -1.2661    1.1151
C	  0.9716   -0.9164    0.8091
C	  0.6800   -0.2420   -0.3771
C	  1.7114    0.0906   -1.2524
O	 -0.5638    0.1884   -0.7370
C	 -1.6517   -0.7014   -0.4262
C	 -2.7373   -0.5348   -1.5129
C	 -3.2815    0.9022   -1.4544
C	 -3.7905    1.2122   -0.0363
C	 -2.6962    0.9173    1.0032
O	 -2.2093   -0.4280    0.8721
C	 -3.2262    1.1125    2.4346
O	 -3.5978    2.4660    2.6920
O	 -4.2350    2.5786    0.0298
O	 -4.3404    1.0698   -2.4044
O	 -2.2247   -0.8556   -2.8157
H	  4.6346   -2.9445    1.8494
H	  4.8977   -1.3691    2.6382
H	  6.2212   -2.1801    1.8083
H	  6.7253   -1.1219   -0.2797
H	  2.4843   -1.7776    2.0575
H	  0.1901   -1.1604    1.5270
H	  1.5016    0.6280   -2.1726
H	 -1.3114   -1.7459   -0.4474
H	 -3.5585   -1.2350   -1.3222
H	 -2.5083    1.6263   -1.7483
H	 -4.6732    0.5879    0.1621
H	 -1.8694    1.6275    0.8663
H	 -2.4552    0.8313    3.1618
H	 -4.0893    0.4639    2.6268
H	 -4.2315    2.7280    1.9919
H	 -3.5185    3.1528   -0.3073
H	 -4.8610    1.8471   -2.1216
H	 -2.1677   -0.0181   -3.3176
10	10	10	10	10	10	10	10	10	10	10	10	10	10	10	10	10	10	10	10	10	10	10	10	10	10	10	10	10	10	10	10	10	10	10	10	10	10	10	10	10	10	10	10	10	10	10	10	10	10	10	10	10	10	10	10	10	10	10	10	10	10	10	10	10	10	10	10	10	10	10	10	10	10	10	10	10	10	10	10	10	10	10	10	10	10	10	10	10	10	10	10	10	10	10	10	10	10	10	10	10	10	10	10	10	10	10	10	10	10	10	10	10	10	10	10	10	10	10	10	10
CC1=CC(=O)OC2=C1C=CC(=C2)O[C@@H]3[C@@H]([C@H]([C@@H]([C@H](O3)CO)O)O)O	CC1=CC(=O)OC2=C1C=CC(=C2)O[C@@H]3[C@@H]([C@H]([C@@H]([C@H](O3)CO)O)O)O
CC1=CC(=O)OC2=C1C=CC(=C2)O[C@@H]3[C@@H]([C@H]([C@@H]([C@H](O3)CO)O)O)O	CC1=CC(=O)OC2=C1C=CC(=C2)O[C@@H]3[C@@H]([C@H]([C@@H]([C@H](O3)CO)O)O)O
O=c1ccc2ccc(OC3CCCCO3)cc2o1
