43
covid	1513	99	99	99	99	99	99	99	99	99	99	99	99	99	99	99
C	  0.1444   -2.0438    2.8176
C	  0.1373   -1.9823    1.2830
C	  1.5369   -1.7949    0.7922
C	  2.0310   -0.6546    0.2094
C	  1.2137    0.5373   -0.0668
C	 -0.2474    0.0713   -0.2401
N	 -0.7484   -0.8715    0.7965
C	 -2.1247   -1.0949    0.9533
O	 -2.6119   -2.0522    1.5467
C	 -3.0703   -0.0977    0.4224
C	 -3.6868   -0.2582   -0.8276
C	 -4.6066    0.7066   -1.2710
C	 -4.8920    1.8097   -0.4386
C	 -4.2815    1.9520    0.8083
C	 -3.3717    0.9954    1.2440
C	 -5.2880    0.5902   -2.6106
F	 -6.1492    1.6200   -2.8596
F	 -6.0324   -0.5404   -2.7393
F	 -4.4099    0.6007   -3.6509
Cl	 -3.2896   -1.6192   -1.8225
N	  3.3656   -0.9092   -0.0178
N	  3.6337   -2.1887    0.3748
N	  2.5248   -2.7262    0.8755
C	  4.3784   -0.0490   -0.5509
N	  4.0334    1.2227   -0.8774
C	  5.0177    2.0093   -1.3706
C	  6.3106    1.5842   -1.5472
C	  6.5711    0.2863   -1.1907
N	  5.6315   -0.5469   -0.6929
F	  7.2583    2.3891   -2.0375
H	  0.8104   -2.8372    3.1754
H	 -0.8484   -2.2410    3.2308
H	  0.4939   -1.0972    3.2469
H	 -0.2558   -2.9228    0.8774
H	  1.5212    1.0611   -0.9757
H	  1.2836    1.2333    0.7767
H	 -0.3540   -0.4499   -1.2008
H	 -0.8867    0.9576   -0.2849
H	 -5.6066    2.5684   -0.7608
H	 -4.5246    2.8029    1.4417
H	 -2.9063    1.0900    2.2230
H	  4.7292    3.0233   -1.6279
H	  7.5660   -0.1337   -1.2962
10	10	10	10	10	10	10	10	10	10	10	10	10	10	10	10	10	10	10	10	10	10	10	10	10	10	10	10	10	10	10	10	10	10	10	10	10	10	10	10	10	10	10	10	10	10	10	10	10	10	10	10	10	10	10	10	10	10	10	10	10	10	10	10	10	10	10	10	10	10	10	10	10	10	10	10	10	10	10	10	10	10	10	10	10	10	10	10	10	10	10	10	10	10	10	10	10	10	10	10	10	10	10	10	10	10	10	10	10	10	10	10	10	10	10	10	10	10	10	10	10	10	10	10
C[C@@H]1C2=C(CCN1C(=O)C3=C(C(=CC=C3)C(F)(F)F)Cl)N(N=N2)C4=NC=C(C=N4)F	C[C@@H]1C2=C(CCN1C(=O)C3=C(C(=CC=C3)C(F)(F)F)Cl)N(N=N2)C4=NC=C(C=N4)F
C[C@@H]1C2=C(CCN1C(=O)C3=C(C(=CC=C3)C(F)(F)F)Cl)N(N=N2)C4=NC=C(C=N4)F	C[C@@H]1C2=C(CCN1C(=O)C3=C(C(=CC=C3)C(F)(F)F)Cl)N(N=N2)C4=NC=C(C=N4)F
O=C(c1ccccc1)N1CCc2c(nnn2-c2ncccn2)C1
