52
covid	1147	99	99	99	99	99	99	99	99	99	99	99	99	99	99	99
C	 -5.5249    1.9194    1.1581
C	 -6.7167    1.8137    0.4425
C	 -7.0382    0.6156   -0.1907
C	 -6.1615   -0.4636   -0.1130
C	 -4.9478   -0.3727    0.5745
C	 -4.6494    0.8320    1.2317
C	 -4.0475   -1.5794    0.6519
N	 -2.6337   -1.2505    0.4822
C	 -1.9340   -1.0364   -0.6753
C	 -0.6437   -0.7580   -0.2844
C	 -0.6330   -0.8364    1.1367
N	 -1.8614   -1.1495    1.5901
C	  0.5309   -0.6180    2.0163
N	  0.3570   -0.7417    3.3484
C	  1.4470   -0.5308    4.1077
C	  2.6757   -0.2128    3.5857
C	  2.7740   -0.1177    2.2035
N	  1.7009   -0.3058    1.4093
N	  4.0030    0.2654    1.6333
C	  4.0885    0.1491    0.1740
C	  5.5060    0.4553   -0.3281
C	  5.6125    0.0691   -1.8068
O	  6.4691   -0.7232   -2.2010
N	  4.7322    0.6027   -2.7029
C	  5.8359    1.9403   -0.2413
F	  4.9417    2.6885   -0.9383
F	  7.0580    2.2010   -0.7691
F	  5.8495    2.4103    1.0242
O	  6.4363   -0.3745    0.4236
F	  3.7339   -0.0200    4.3851
C	 -2.4571   -1.0845   -2.1376
N	 -3.7246   -1.3736   -2.4437
O	 -3.8032   -1.3203   -3.8234
C	 -2.5867   -1.0042   -4.3286
C	 -1.6939   -0.8445   -3.3018
F	 -6.5122   -1.6163   -0.7011
H	 -5.2764    2.8482    1.6663
H	 -7.3970    2.6594    0.3874
H	 -7.9681    0.5103   -0.7402
H	 -3.7331    0.9340    1.8121
H	 -4.2920   -2.3393   -0.0966
H	 -4.1634   -2.0521    1.6350
H	  0.2001   -0.5295   -0.9193
H	  1.3048   -0.6263    5.1785
H	  4.7709   -0.2305    2.0957
H	  3.3580    0.8155   -0.3018
H	  3.8340   -0.8815   -0.1106
H	  4.2728    1.4944   -2.5399
H	  4.9170    0.3798   -3.6764
H	  7.1680   -0.5899   -0.1931
H	 -2.5296   -0.9356   -5.4047
H	 -0.6489   -0.5918   -3.3840
10	10	10	10	10	10	10	10	10	10	10	10	10	10	10	10	10	10	10	10	10	10	10	10	10	10	10	10	10	10	10	10	10	10	10	10	10	10	10	10	10	10	10	10	10	10	10	10	10	10	10	10	10	10	10	10	10	10	10	10	10	10	10	10	10	10	10	10	10	10	10	10	10	10	10	10	10	10	10	10	10	10	10	10	10	10	10	10	10	10	10	10	10	10	10	10	10	10	10	10	10	10	10	10	10	10	10	10	10	10	10	10	10	10	10	10	10	10	10	10	10	10	10	10	10	10	10	10	10	10	10	10	10	10	10	10	10	10	10	10	10	10	10	10	10	10	10	10	10	10	10
C1=CC=C(C(=C1)CN2C(=CC(=N2)C3=NC=C(C(=N3)NC[C@@](C(=O)N)(C(F)(F)F)O)F)C4=NOC=C4)F	C1=CC=C(C(=C1)CN2C(=CC(=N2)C3=NC=C(C(=N3)NC[C@@](C(=O)N)(C(F)(F)F)O)F)C4=NOC=C4)F
C1=CC=C(C(=C1)CN2C(=CC(=N2)C3=NC=C(C(=N3)NC[C@@](C(=O)N)(C(F)(F)F)O)F)C4=NOC=C4)F	C1=CC=C(C(=C1)CN2C(=CC(=N2)C3=NC=C(C(=N3)NC[C@@](C(=O)N)(C(F)(F)F)O)F)C4=NOC=C4)F
c1ccc(Cn2nc(-c3ncccn3)cc2-c2ccon2)cc1
