57
covid	1458	99	99	99	99	99	99	99	99	99	99	99	99	99	99	99
C	  8.7446   -1.4846    2.5366
O	  7.8030   -0.9834    1.5975
N	  8.4913   -0.5768    0.4491
C	  7.6878   -0.1961   -0.5067
C	  6.2048   -0.1116   -0.3981
C	  5.4167   -0.6990   -1.3925
C	  4.0249   -0.6397   -1.3002
C	  3.4068    0.0072   -0.2162
C	  4.2086    0.6308    0.7514
C	  5.6015    0.5767    0.6594
C	  1.9067    0.0179   -0.0928
N	  1.2926    0.9228   -1.0364
C	 -0.0443    0.9576   -1.3699
O	 -0.4115    1.7928   -2.2031
C	 -0.9963   -0.1029   -0.6975
C	 -1.4376   -1.2875   -1.5784
C	 -2.7569   -0.5470   -1.8256
N	 -2.4218    0.2511   -0.6633
C	 -2.9519    1.4206   -0.1701
O	 -2.3095    2.1617    0.5813
C	 -4.4019    1.7550   -0.5986
C	 -5.3848    1.1992    0.4146
C	 -6.0188   -0.0387    0.1926
C	 -6.8628   -0.5880    1.1659
C	 -7.0754    0.0976    2.3673
C	 -6.4633    1.3290    2.5884
C	 -5.6199    1.8775    1.6267
Cl	 -6.7417    2.1724    4.0686
O	 -7.4997   -1.7955    1.0814
C	 -7.6503   -2.3431   -0.2151
F	 -8.4508   -3.4327   -0.1063
F	 -6.4487   -2.7913   -0.6548
O	 -4.6198    3.1608   -0.7135
N	  8.2532    0.1528   -1.7062
H	  9.5223   -0.7407    2.7360
H	  8.2184   -1.6989    3.4681
H	  9.1894   -2.4110    2.1608
H	  5.8844   -1.2259   -2.2199
H	  3.4197   -1.1119   -2.0726
H	  3.7525    1.1591    1.5877
H	  6.2100    1.0653    1.4156
H	  1.5223   -0.9944   -0.2632
H	  1.5921    0.3168    0.9144
H	  1.8440    1.6768   -1.4253
H	 -0.6745   -0.4146    0.3039
H	 -1.5420   -2.2267   -1.0293
H	 -0.8379   -1.4748   -2.4745
H	 -3.6527   -1.1554   -1.7137
H	 -2.7981    0.0367   -2.7510
H	 -4.6077    1.3349   -1.5900
H	 -5.8102   -0.5688   -0.7387
H	 -7.7213   -0.3333    3.1317
H	 -5.1308    2.8334    1.8180
H	 -8.0958   -1.6472   -0.9295
H	 -3.7970    3.5376   -1.0670
H	  7.7835    0.8752   -2.2375
H	  9.2545    0.3020   -1.6233
10	10	10	10	10	10	10	10	10	10	10	10	10	10	10	10	10	10	10	10	10	10	10	10	10	10	10	10	10	10	10	10	10	10	10	10	10	10	10	10	10	10	10	10	10	10	10	10	10	10	10	10	10	10	10	10	10	10	10	10	10	10	10	10	10	10	10	10	10	10	10	10	10	10	10	10	10	10	10	10	10	10	10	10	10	10	10	10	10	10	10	10	10	10	10	10	10	10	10	10	10	10	10	10	10	10	10	10	10	10	10	10	10	10	10	10	10	10	10	10	10	10	10	10	10	10	10	10	10	10	10	10	10	10	10	10	10	10	10	10	10	10	10	10	10	10	10	10	10	10	10	10	10	10	10	10	10	10	10	10	10	10	10	10	10	10
CON=C(C1=CC=C(C=C1)CNC(=O)[C@@H]2CCN2C(=O)[C@@H](C3=CC(=CC(=C3)Cl)OC(F)F)O)N	CON=C(C1=CC=C(C=C1)CNC(=O)[C@@H]2CCN2C(=O)[C@@H](C3=CC(=CC(=C3)Cl)OC(F)F)O)N
CON=C(C1=CC=C(C=C1)CNC(=O)[C@@H]2CCN2C(=O)[C@@H](C3=CC(=CC(=C3)Cl)OC(F)F)O)N	CON=C(C1=CC=C(C=C1)CNC(=O)[C@@H]2CCN2C(=O)[C@@H](C3=CC(=CC(=C3)Cl)OC(F)F)O)N
O=C(NCc1ccccc1)C1CCN1C(=O)Cc1ccccc1
