57
covid	1891	99	99	99	99	99	99	99	99	99	99	99	99	99	99	99
C	 -7.2975    1.1822   -0.2749
C	 -6.9849    1.4170    1.2148
C	 -5.8660    0.3965    1.4979
C	 -6.3145   -0.7780    0.6241
C	 -6.3189    0.0562   -0.6598
C	 -4.8979    0.6504   -0.6914
C	 -4.5867    0.8845    0.7919
C	 -3.3806    0.0248    1.0628
O	 -2.8438   -0.0807    2.1554
N	 -3.0170   -0.6061   -0.0946
C	 -3.8447   -0.3246   -1.1463
O	 -3.7768   -0.7864   -2.2754
C	 -1.8961   -1.5240   -0.1899
C	 -0.6546   -0.8847   -0.8172
C	 -0.0513    0.2228    0.0549
C	  1.2318    0.8201   -0.5440
N	  2.3189   -0.1532   -0.7186
C	  3.4508    0.4256   -1.4793
C	  4.6188    0.9903   -0.6363
N	  5.1207   -0.0117    0.3042
C	  4.2576   -1.1531    0.6014
C	  2.7775   -0.7077    0.5795
C	  6.4815   -0.1713    0.4473
N	  7.2984    0.8172    0.0421
C	  8.6232    0.6492    0.2138
C	  9.1784   -0.4690    0.7771
C	  8.2782   -1.4257    1.1645
N	  6.9464   -1.2996    1.0131
H	 -8.3363    0.8541   -0.3937
H	 -7.1547    2.0877   -0.8729
H	 -7.8711    1.2033    1.8231
H	 -6.6752    2.4480    1.4127
H	 -5.7370    0.1596    2.5561
H	 -5.6073   -1.6123    0.6072
H	 -7.3061   -1.1591    0.8923
H	 -6.6016   -0.4898   -1.5623
H	 -4.8246    1.5682   -1.2836
H	 -4.3442    1.9300    1.0077
H	 -2.2082   -2.3706   -0.8126
H	 -1.6569   -1.9127    0.8062
H	  0.0867   -1.6769   -0.9739
H	 -0.9012   -0.4769   -1.8049
H	 -0.7780    1.0369    0.1630
H	  0.1390   -0.1579    1.0651
H	  1.5633    1.6603    0.0797
H	  0.9647    1.2423   -1.5216
H	  3.8513   -0.3821   -2.1069
H	  3.1055    1.1914   -2.1849
H	  5.3877    1.3345   -1.3383
H	  4.2767    1.8653   -0.0710
H	  4.4722   -1.5535    1.6001
H	  4.4166   -1.9567   -0.1291
H	  2.1475   -1.5670    0.8359
H	  2.6512    0.0386    1.3761
H	  9.2408    1.4739   -0.1281
H	 10.2439   -0.5863    0.9078
H	  8.6043   -2.3532    1.6249
10	10	10	10	10	10	10	10	10	10	10	10	10	10	10	10	10	10	10	10	10	10	10	10	10	10	10	10	10	10	10	10	10	10	10	10	10	10	10	10	10	10	10	10	10	10	10	10	10	10	10	10	10	10	10	10	10	10	10	10	10	10	10	10	10	10	10	10	10	10	10	10	10	10	10	10	10	10	10	10	10	10	10	10	10	10	10	10	10	10	10	10	10	10	10	10	10	10	10	10	10	10	10	10	10	10	10	10	10	10	10	10	10	10	10	10	10	10	10	10	10	10	10	10	10	10	10	10	10	10	10	10	10	10	10	10	10	10	10	10	10	10	10	10	10	10	10	10	10	10	10	10	10	10	10	10	10	10	10	10	10	10	10	10	10	10
C1C[C@H]2C[C@@H]1[C@H]3[C@@H]2C(=O)N(C3=O)CCCCN4CCN(CC4)C5=NC=CC=N5	C1C[C@H]2C[C@@H]1[C@H]3[C@@H]2C(=O)N(C3=O)CCCCN4CCN(CC4)C5=NC=CC=N5
C1C[C@H]2C[C@@H]1[C@H]3[C@@H]2C(=O)N(C3=O)CCCCN4CCN(CC4)C5=NC=CC=N5	C1C[C@H]2C[C@@H]1[C@H]3[C@@H]2C(=O)N(C3=O)CCCCN4CCN(CC4)C5=NC=CC=N5
O=C1C2C3CCC(C3)C2C(=O)N1CCCCN1CCN(c2ncccn2)CC1
