64
covid	1514	99	99	99	99	99	99	99	99	99	99	99	99	99	99	99
C	 -7.0726    3.4444    1.5108
C	 -6.5939    2.1318    0.9977
C	 -7.2425    1.2303    0.1801
C	 -6.3675    0.1405   -0.0462
C	 -5.1867    0.3878    0.6457
N	 -5.3546    1.6006    1.2970
C	 -4.4130    2.2111    2.2169
C	 -4.0223   -0.4731    0.7246
O	 -4.0442   -1.6657    1.0253
C	 -2.6440    0.1458    0.4078
O	 -2.5503    1.2914   -0.0034
N	 -1.6247   -0.7522    0.6664
C	 -0.2401   -0.5504    0.5517
C	  0.5938   -1.6198    0.8846
C	  1.9881   -1.4922    0.8113
C	  2.5919   -0.3000    0.3953
C	  1.7358    0.7639    0.0700
C	  0.3404    0.6458    0.1433
N	  3.9805   -0.1130    0.3236
C	  4.4692    0.1627   -1.0539
C	  5.9363    0.6510   -1.0394
N	  6.8069   -0.2661   -0.2789
C	  6.3096   -0.5814    1.0728
C	  4.8506   -1.0844    1.0248
C	  8.1555    0.0951   -0.3039
N	  8.6125    0.8414   -1.3304
C	  9.9256    1.1607   -1.3452
C	 10.8050    0.7627   -0.3776
C	 10.2723    0.0010    0.6263
N	  8.9659   -0.3403    0.6827
F	 12.1001    1.0951   -0.4097
C	 -6.5986   -1.0265   -0.8767
C	 -7.5617   -1.9698   -0.5043
C	 -7.7956   -3.0868   -1.3092
C	 -7.0734   -3.2610   -2.4908
C	 -6.1166   -2.3191   -2.8704
C	 -5.8799   -1.2023   -2.0659
H	 -6.3469    4.2362    1.2963
H	 -8.0207    3.7247    1.0384
H	 -7.2373    3.3983    2.5925
H	 -8.2389    1.3522   -0.2278
H	 -4.9621    2.6431    3.0571
H	 -3.7301    1.4536    2.6074
H	 -3.8673    2.9889    1.6784
H	 -1.9454   -1.6693    0.9739
H	  0.1779   -2.5696    1.2109
H	  2.5854   -2.3587    1.0761
H	  2.1556    1.7238   -0.2223
H	 -0.2554    1.5143   -0.1185
H	  3.8678    0.9317   -1.5524
H	  4.3976   -0.7557   -1.6525
H	  5.9756    1.6541   -0.5939
H	  6.2620    0.7280   -2.0844
H	  6.9098   -1.3716    1.5395
H	  6.3633    0.3140    1.7056
H	  4.5088   -1.2293    2.0574
H	  4.8227   -2.0543    0.5091
H	 10.2542    1.7638   -2.1840
H	 10.8914   -0.3656    1.4370
H	 -8.1253   -1.8446    0.4171
H	 -8.5401   -3.8207   -1.0122
H	 -7.2578   -4.1299   -3.1181
H	 -5.5586   -2.4511   -3.7944
H	 -5.1436   -0.4658   -2.3789
10	10	10	10	10	10	10	10	10	10	10	10	10	10	10	10	10	10	10	10	10	10	10	10	10	10	10	10	10	10	10	10	10	10	10	10	10	10	10	10	10	10	10	10	10	10	10	10	10	10	10	10	10	10	10	10	10	10	10	10	10	10	10	10	10	10	10	10	10	10	10	10	10	10	10	10	10	10	10	10	10	10	10	10	10	10	10	10	10	10	10	10	10	10	10	10	10	10	10	10	10	10	10	10	10	10	10	10	10	10	10	10	10	10	10	10	10	10	10	10	10	10	10	10	10	10	10	10	10	10	10	10	10	10	10	10	10	10	10	10	10	10	10	10	10	10	10	10	10	10	10	10	10	10	10	10	10	10	10	10	10	10	10	10	10	10	10	10	10	10	10	10	10	10	10	10	10	10	10	10	10	10	10	10	10	10	10
CC1=CC(=C(N1C)C(=O)C(=O)NC2=CC=C(C=C2)N3CCN(CC3)C4=NC=C(C=N4)F)C5=CC=CC=C5	CC1=CC(=C(N1C)C(=O)C(=O)NC2=CC=C(C=C2)N3CCN(CC3)C4=NC=C(C=N4)F)C5=CC=CC=C5
CC1=CC(=C(N1C)C(=O)C(=O)NC2=CC=C(C=C2)N3CCN(CC3)C4=NC=C(C=N4)F)C5=CC=CC=C5	CC1=CC(=C(N1C)C(=O)C(=O)NC2=CC=C(C=C2)N3CCN(CC3)C4=NC=C(C=N4)F)C5=CC=CC=C5
O=C(Nc1ccc(N2CCN(c3ncccn3)CC2)cc1)C(=O)c1[nH]ccc1-c1ccccc1
