85
covid	1911	99	99	99	99	99	99	99	99	99	99	99	99	99	99	99
C	  1.5187   -0.1368   -3.9155
C	  0.4290    0.0718   -2.8503
C	 -0.7995   -0.7518   -3.2064
C	 -2.0480   -0.6626   -2.7077
C	 -2.5992    0.1535   -1.5508
C	 -3.3533    1.4788   -1.9652
C	 -2.3616    2.6623   -2.1276
C	 -1.8111    3.2166   -0.7994
C	 -0.5465    4.0773   -0.9764
C	  0.6886    3.4747   -0.3027
C	  1.2290    2.3274   -1.1106
O	  1.9260    2.4703   -2.1044
O	  0.7829    1.1459   -0.6149
C	  0.9279   -0.0941   -1.3737
C	  2.2507   -0.8269   -1.1075
C	  3.3799   -0.1958   -0.7226
C	  4.6738   -0.7889   -0.4588
C	  5.7074   -0.0804    0.0245
C	  7.0840   -0.6619    0.2761
C	  8.1734    0.2738   -0.2602
C	  7.3422   -0.9987    1.7381
C	  7.1325   -0.0651    2.7556
C	  7.4270   -0.4199    4.0702
C	  7.9237   -1.6890    4.3408
C	  8.1103   -2.5560    3.2783
N	  7.8348   -2.2418    1.9939
C	  2.1338   -2.3298   -1.2544
O	 -0.7853    5.3629   -0.3884
C	 -4.4944    1.8720   -1.0102
O	 -3.9939    1.2975   -3.2459
O	 -3.5099   -0.7590   -0.8902
C	 -3.4921   -0.7468    0.4719
O	 -2.7873    0.0069    1.1335
N	 -4.3671   -1.6634    1.0224
C	 -4.6426   -1.5929    2.4547
C	 -5.9929   -0.8830    2.6999
N	 -7.1349   -1.4503    1.9411
C	 -6.7780   -1.6107    0.5104
C	 -5.4272   -2.3154    0.2543
C	 -7.5932   -2.7108    2.5250
H	  1.1487    0.1668   -4.9032
H	  2.4084    0.4659   -3.7075
H	  1.8265   -1.1826   -3.9964
H	  0.1004    1.1025   -2.9973
H	 -0.6678   -1.4420   -4.0399
H	 -2.7947   -1.2999   -3.1823
H	 -1.7781    0.3930   -0.8747
H	 -2.8553    3.4806   -2.6682
H	 -1.5477    2.3544   -2.7874
H	 -2.6007    3.8138   -0.3274
H	 -1.6038    2.3977   -0.1049
H	 -0.3467    4.2587   -2.0379
H	  0.4755    3.1569    0.7238
H	  1.4843    4.2230   -0.2075
H	  0.1855   -0.7227   -0.8663
H	  3.3629    0.8860   -0.6103
H	  4.8190   -1.8451   -0.6681
H	  5.5818    0.9783    0.2406
H	  7.1663   -1.5989   -0.2934
H	  8.0475    0.4417   -1.3347
H	  8.1574    1.2516    0.2383
H	  9.1682   -0.1578   -0.1077
H	  6.7497    0.9276    2.5374
H	  7.2719    0.2906    4.8768
H	  8.1594   -1.9951    5.3529
H	  8.4990   -3.5595    3.4341
H	  3.0197   -2.8784   -0.9226
H	  1.2991   -2.7045   -0.6522
H	  1.9503   -2.6074   -2.2953
H	 -1.0475    5.2300    0.5383
H	 -4.1553    2.0087    0.0202
H	 -4.9666    2.8056   -1.3394
H	 -5.2942    1.1229   -1.0169
H	 -4.5627    0.5103   -3.1787
H	 -4.6647   -2.6175    2.8429
H	 -3.8442   -1.0616    2.9823
H	 -6.2172   -0.8708    3.7741
H	 -5.8921    0.1698    2.4020
H	 -7.5790   -2.1358   -0.0240
H	 -6.7319   -0.6058    0.0712
H	 -5.2037   -2.3173   -0.8168
H	 -5.4733   -3.3616    0.5789
H	 -7.9156   -2.5529    3.5614
H	 -6.8280   -3.4946    2.5217
H	 -8.4683   -3.0847    1.9808
10	10	10	10	10	10	10	10	10	10	10	10	10	10	10	10	10	10	10	10	10	10	10	10	10	10	10	10	10	10	10	10	10	10	10	10	10	10	10	10	10	10	10	10	10	10	10	10	10	10	10	10	10	10	10	10	10	10	10	10	10	10	10	10	10	10	10	10	10	10	10	10	10	10	10	10	10	10	10	10	10	10	10	10	10	10	10	10	10	10	10	10	10	10	10	10	10	10	10	10	10	10	10	10	10	10	10	10	10	10	10	10	10	10	10	10	10	10	10	10	10	10	10	10	10	10	10	10	10	10	10	10	10	10	10	10	10	10	10	10	10	10	10	10	10	10	10	10	10	10	10	10	10	10	10	10	10	10	10	10	10	10	10	10	10	10	10	10	10	10	10	10	10	10	10	10	10	10	10	10	10	10	10	10	10	10	10	10	10	10	10	10	10	10	10	10	10	10	10	10	10	10	10	10	10	10	10	10	10	10	10	10	10	10	10	10	10	10	10	10	10	10	10	10	10	10	10	10	10	10	10	10	10	10	10	10	10	10	10	10	10	10	10	10	10	10	10	10	10	10
C[C@H]1/C=C/[C@@H]([C@](CC[C@H](CC(=O)O[C@@H]1/C(=C/C=C/[C@@H](C)C2=CC=CC=N2)/C)O)(C)O)OC(=O)N3CCN(CC3)C	C[C@H]1/C=C/[C@@H]([C@](CC[C@H](CC(=O)O[C@@H]1/C(=C/C=C/[C@@H](C)C2=CC=CC=N2)/C)O)(C)O)OC(=O)N3CCN(CC3)C
C[C@H]1/C=C/[C@@H]([C@](CC[C@H](CC(=O)O[C@@H]1/C(=C/C=C/[C@@H](C)C2=CC=CC=N2)/C)O)(C)O)OC(=O)N3CCN(CC3)C	C[C@H]1/C=C/[C@@H]([C@](CC[C@H](CC(=O)O[C@@H]1/C(=C/C=C/[C@@H](C)C2=CC=CC=N2)/C)O)(C)O)OC(=O)N3CCN(CC3)C
O=C1CCCCCC(OC(=O)N2CCNCC2)C=CCC(C=CC=CCc2ccccn2)O1
