52
covid	1934	99	99	99	99	99	99	99	99	99	99	99	99	99	99	99
C	  1.7985    0.7830    1.5750
C	  1.3224    0.1360    0.2725
C	  2.4776   -0.1754   -0.6916
S	  3.5299   -1.5553   -0.1203
C	  4.9963   -0.6438    0.2189
O	  4.9768    0.2569    1.0494
C	  6.2475   -0.9799   -0.5250
C	  6.3286   -1.9774   -1.5085
C	  7.5303   -2.2040   -2.1886
C	  8.6592   -1.4460   -1.8893
C	  8.5941   -0.4612   -0.9063
C	  7.3940   -0.2294   -0.2274
C	  0.3627    1.1030   -0.4197
O	  0.7794    1.9312   -1.2348
N	 -0.9660    1.0824   -0.0515
C	 -1.8915    2.0623   -0.6083
C	 -3.2760    1.6968   -0.0636
C	 -2.9315    0.9265    1.2230
C	 -1.6388    0.1732    0.8886
C	 -1.8913   -1.2239    0.2747
O	 -1.3799   -1.6322   -0.7614
O	 -2.6695   -2.0340    1.0344
S	 -4.2155    0.6815   -1.2777
C	 -5.7005    0.3377   -0.3540
C	 -6.5005    1.3616    0.1591
C	 -7.6537    1.0588    0.8866
C	 -8.0133   -0.2695    1.1012
C	 -7.2270   -1.2951    0.5810
C	 -6.0758   -0.9927   -0.1496
H	  2.3823    0.0822    2.1805
H	  2.4210    1.6630    1.3721
H	  0.9576    1.1238    2.1889
H	  0.7967   -0.7952    0.4997
H	  3.0872    0.7172   -0.8822
H	  2.0713   -0.4819   -1.6637
H	  5.4693   -2.5842   -1.7775
H	  7.5816   -2.9644   -2.9660
H	  9.5902   -1.6115   -2.4291
H	  9.4739    0.1358   -0.6734
H	  7.3586    0.5536    0.5294
H	 -1.8182    2.0925   -1.6997
H	 -1.5819    3.0426   -0.2228
H	 -3.8544    2.6032    0.1454
H	 -3.7414    0.2964    1.6029
H	 -2.7105    1.6630    2.0126
H	 -1.0207    0.0279    1.7802
H	 -2.9938   -1.6564    1.8731
H	 -6.2506    2.4046   -0.0168
H	 -8.2768    1.8597    1.2745
H	 -8.9167   -0.5036    1.6625
H	 -7.5155   -2.3339    0.7370
H	 -5.4760   -1.8053   -0.5594
10	10	10	10	10	10	10	10	10	10	10	10	10	10	10	10	10	10	10	10	10	10	10	10	10	10	10	10	10	10	10	10	10	10	10	10	10	10	10	10	10	10	10	10	10	10	10	10	10	10	10	10	10	10	10	10	10	10	10	10	10	10	10	10	10	10	10	10	10	10	10	10	10	10	10	10	10	10	10	10	10	10	10	10	10	10	10	10	10	10	10	10	10	10	10	10	10	10	10	10	10	10	10	10	10	10	10	10	10	10	10	10	10	10	10	10	10	10	10	10	10	10	10	10	10	10	10	10	10	10	10	10	10	10	10	10	10	10	10	10	10	10	10	10	10	10	10	10	10	10	10
C[C@H](CSC(=O)C1=CC=CC=C1)C(=O)N2C[C@H](C[C@H]2C(=O)O)SC3=CC=CC=C3	C[C@H](CSC(=O)C1=CC=CC=C1)C(=O)N2C[C@H](C[C@H]2C(=O)O)SC3=CC=CC=C3
C[C@H](CSC(=O)C1=CC=CC=C1)C(=O)N2C[C@H](C[C@H]2C(=O)O)SC3=CC=CC=C3	C[C@H](CSC(=O)C1=CC=CC=C1)C(=O)N2C[C@H](C[C@H]2C(=O)O)SC3=CC=CC=C3
O=C(SCCC(=O)N1CCC(Sc2ccccc2)C1)c1ccccc1
