71
covid	2047	99	99	99	99	99	99	99	99	99	99	99	99	99	99	99
C	 -2.2773   -4.1801    2.0504
C	 -1.9879   -3.6838    0.6332
C	 -0.6506   -2.9300    0.5656
C	 -0.8161   -1.4173    0.6591
N	 -1.7191   -0.8802   -0.3548
C	 -2.7617   -1.7714   -0.8982
C	 -3.1660   -2.8398    0.1192
C	 -2.3426   -2.3858   -2.2394
O	 -1.2164   -2.4470   -2.7098
O	 -3.3853   -2.9155   -2.9183
C	 -1.6811    0.4268   -0.8312
O	 -2.4036    0.7714   -1.7723
C	 -0.6975    1.4312   -0.1797
C	 -1.2922    2.8526   -0.2428
C	 -2.3913    3.0455    0.8066
C	 -3.0281    4.4282    0.6888
N	 -4.0622    4.5430    1.7134
C	 -4.7601    5.6169    1.7398
N	 -4.7111    6.7096    0.9448
N	 -5.7350    5.7563    2.6640
N	  0.5404    1.3826   -0.9852
S	  1.9789    1.9388   -0.3406
O	  1.6814    2.7612    0.8140
O	  2.7512    2.4661   -1.4467
C	  2.7649    0.4489    0.2354
C	  2.5797    0.1100    1.5878
C	  3.1802   -1.0304    2.1109
C	  3.9707   -1.8283    1.2908
C	  4.1759   -1.4890   -0.0596
C	  3.6053   -0.3137   -0.6016
N	  3.7701   -0.0224   -1.9660
C	  4.9145   -0.6222   -2.6368
C	  4.9271   -2.1264   -2.3928
C	  5.0724   -2.3774   -0.8892
C	  6.0601   -2.7966   -3.1681
H	 -3.2445   -4.6920    2.0938
H	 -1.5099   -4.8903    2.3791
H	 -2.2949   -3.3490    2.7665
H	 -1.8988   -4.5719   -0.0084
H	  0.0433   -3.2852    1.3397
H	 -0.1701   -3.1648   -0.3930
H	 -1.2182   -1.1345    1.6397
H	  0.1611   -0.9492    0.5527
H	 -3.6473   -1.1524   -1.1070
H	 -3.6440   -2.3294    0.9672
H	 -3.9305   -3.5075   -0.2976
H	 -2.9789   -3.2076   -3.7622
H	 -0.5010    1.1543    0.8599
H	 -0.5184    3.6064   -0.0694
H	 -1.6928    3.0630   -1.2415
H	 -3.1574    2.2722    0.7045
H	 -1.9585    2.9275    1.8050
H	 -3.4512    4.5567   -0.3179
H	 -2.2562    5.1934    0.8469
H	 -4.8984    7.5671    1.4497
H	 -3.8606    6.7862    0.4007
H	 -6.6133    6.0396    2.2510
H	 -5.8574    4.8762    3.1559
H	  0.4431    1.5248   -1.9918
H	  1.9645    0.7281    2.2395
H	  3.0333   -1.2972    3.1556
H	  4.4356   -2.7216    1.7059
H	  3.6777    0.9802   -2.1672
H	  5.8422   -0.1495   -2.2834
H	  4.8320   -0.4162   -3.7098
H	  3.9737   -2.5535   -2.7331
H	  4.8517   -3.4333   -0.6799
H	  6.1088   -2.1947   -0.5769
H	  6.0797   -3.8732   -2.9725
H	  5.9340   -2.6514   -4.2463
H	  7.0340   -2.3831   -2.8794
10	10	10	10	10	10	10	10	10	10	10	10	10	10	10	10	10	10	10	10	10	10	10	10	10	10	10	10	10	10	10	10	10	10	10	10	10	10	10	10	10	10	10	10	10	10	10	10	10	10	10	10	10	10	10	10	10	10	10	10	10	10	10	10	10	10	10	10	10	10	10	10	10	10	10	10	10	10	10	10	10	10	10	10	10	10	10	10	10	10	10	10	10	10	10	10	10	10	10	10	10	10	10	10	10	10	10	10	10	10	10	10	10	10	10	10	10	10	10	10	10	10	10	10	10	10	10	10	10	10	10	10	10	10	10	10	10	10	10	10	10	10	10	10	10	10	10	10	10	10	10	10	10	10	10	10	10	10	10	10	10	10	10	10	10	10	10	10	10	10	10	10	10	10	10	10	10	10	10	10	10	10	10	10	10	10	10	10	10	10	10	10	10	10	10	10	10	10	10	10	10	10	10	10	10	10	10	10
C[C@@H]1CCN([C@H](C1)C(=O)O)C(=O)[C@H](CCCN=C(N)N)NS(=O)(=O)C2=CC=CC3=C2NCC(C3)C	C[C@@H]1CCN([C@H](C1)C(=O)O)C(=O)[C@H](CCCN=C(N)N)NS(=O)(=O)C2=CC=CC3=C2NCC(C3)C
C[C@@H]1CCN([C@H](C1)C(=O)O)C(=O)[C@H](CCCN=C(N)N)NS(=O)(=O)C2=CC=CC3=C2NCC(C3)C	C[C@@H]1CCN([C@H](C1)C(=O)O)C(=O)[C@H](CCCN=C(N)N)NS(=O)(=O)C2=CC=CC3=C2NCC(C3)C
O=C(CNS(=O)(=O)c1cccc2c1NCCC2)N1CCCCC1
