61
covid	1221	99	99	99	99	99	99	99	99	99	99	99	99	99	99	99
C	 -3.0168   -2.1254    0.4133
C	 -4.0808   -1.0145    0.3688
C	 -4.1689   -0.2750    1.7276
N	 -3.2393    0.8490    1.6675
C	 -3.0362    1.4935    0.3611
S	 -3.5254    0.2351   -0.8825
C	 -1.5284    1.5968    0.7129
C	 -1.9061    0.6952    1.9113
O	 -1.3196   -0.0157    2.6935
N	 -0.5534    1.0137   -0.2528
C	 -0.1701    1.7184   -1.3732
O	 -0.5712    2.8619   -1.5828
C	  0.7605    0.9947   -2.3362
C	 -0.0205    0.0026   -3.1947
C	 -0.6077    0.4636   -4.3868
C	 -1.3643   -0.3898   -5.1918
C	 -1.5547   -1.7154   -4.8149
C	 -0.9954   -2.1852   -3.6306
C	 -0.2406   -1.3321   -2.8209
C	  1.9927    0.4650   -1.6260
O	  2.3947   -0.6935   -1.6403
O	  2.5951    1.5241   -0.9437
C	  3.6270    1.1229   -0.0923
C	  3.3335    0.9570    1.2607
C	  4.3741    0.6009    2.0988
C	  5.6758    0.4362    1.6074
C	  6.6232    0.1011    2.7170
C	  5.6495   -0.3606    3.8113
C	  4.3330    0.3947    3.5796
C	  5.9678    0.6302    0.2668
C	  4.9267    0.9796   -0.5955
C	 -5.5770    0.2096    2.0890
O	 -6.5203   -0.5094    2.3807
O	 -5.7538    1.5437    2.0436
C	 -5.3922   -1.6271   -0.1348
H	 -3.3016   -2.8925    1.1429
H	 -2.9078   -2.6253   -0.5565
H	 -2.0279   -1.7562    0.7016
H	 -3.8550   -0.9273    2.5529
H	 -3.5573    2.4520    0.2730
H	 -1.2110    2.5939    1.0424
H	 -0.3764    0.0131   -0.2197
H	  1.1641    1.7546   -3.0222
H	 -0.4866    1.5003   -4.6972
H	 -1.8073   -0.0168   -6.1113
H	 -2.1413   -2.3814   -5.4431
H	 -1.1443   -3.2209   -3.3359
H	  0.1795   -1.7418   -1.9057
H	  2.3296    1.1035    1.6416
H	  7.1722    0.9957    3.0273
H	  7.3230   -0.6936    2.4467
H	  6.0491   -0.2048    4.8178
H	  5.4680   -1.4379    3.6992
H	  4.3347    1.3601    4.0938
H	  3.4706   -0.1982    3.8951
H	  6.9795    0.5170   -0.1072
H	  5.1257    1.1386   -1.6494
H	 -6.6902    1.6737    2.3042
H	 -5.7891   -2.3458    0.5905
H	 -6.1648   -0.8729   -0.3172
H	 -5.2460   -2.1715   -1.0743
10	10	10	10	10	10	10	10	10	10	10	10	10	10	10	10	10	10	10	10	10	10	10	10	10	10	10	10	10	10	10	10	10	10	10	10	10	10	10	10	10	10	10	10	10	10	10	10	10	10	10	10	10	10	10	10	10	10	10	10	10	10	10	10	10	10	10	10	10	10	10	10	10	10	10	10	10	10	10	10	10	10	10	10	10	10	10	10	10	10	10	10	10	10	10	10	10	10	10	10	10	10	10	10	10	10	10	10	10	10	10	10	10	10	10	10	10	10	10	10	10	10	10	10	10	10	10	10	10	10	10	10	10	10	10	10	10	10	10	10	10	10	10	10	10	10	10	10	10	10	10	10	10	10	10	10	10	10	10	10	10	10	10	10	10	10	10	10	10	10	10	10	10	10	10	10	10	10
CC1([C@@H](N2[C@H](S1)[C@@H](C2=O)NC(=O)C(C3=CC=CC=C3)C(=O)OC4=CC5=C(CCC5)C=C4)C(=O)O)C	CC1([C@@H](N2[C@H](S1)[C@@H](C2=O)NC(=O)C(C3=CC=CC=C3)C(=O)OC4=CC5=C(CCC5)C=C4)C(=O)O)C
CC1([C@@H](N2[C@H](S1)[C@@H](C2=O)NC(=O)C(C3=CC=CC=C3)C(=O)OC4=CC5=C(CCC5)C=C4)C(=O)O)C	CC1([C@@H](N2[C@H](S1)[C@@H](C2=O)NC(=O)C(C3=CC=CC=C3)C(=O)OC4=CC5=C(CCC5)C=C4)C(=O)O)C
O=C(NC1C(=O)N2CCSC12)C(C(=O)Oc1ccc2c(c1)CCC2)c1ccccc1
