65
covid	1459	99	99	99	99	99	99	99	99	99	99	99	99	99	99	99
C	 -0.5957    0.2704    1.6815
C	 -0.6818   -0.7688    0.5344
C	 -0.7615   -0.0313   -0.8090
C	 -2.1088    0.6935   -0.9931
C	 -3.3419   -0.2182   -0.7597
C	 -3.2244   -0.9830    0.5928
C	 -1.8888   -1.7268    0.6201
C	 -1.5590   -2.6132    1.8166
C	 -0.0293   -2.7596    1.7623
C	  0.4651   -1.7993    0.6567
O	  1.7141   -1.2270    1.0547
C	  2.5449   -0.8350    0.0486
O	  2.3086   -0.9388   -1.1456
C	  3.7924   -0.2240    0.6434
C	  4.8896   -0.0400   -0.4050
C	  6.1856    0.5056    0.1961
C	  6.0715    1.9262    0.7488
C	  7.5045    2.4548    0.7741
C	  8.3156    1.5455   -0.1483
C	  7.2980    0.6488   -0.8404
C	 -4.4243   -1.9208    0.7401
C	 -5.7081   -1.1040    0.8531
C	 -5.8087    0.0208   -0.1487
C	 -4.6950    0.4789   -0.8868
C	 -4.8893    1.5302   -1.8019
C	 -6.1363    2.1435   -1.9525
C	 -7.2096    1.7006   -1.1954
C	 -7.0557    0.6517   -0.3004
O	 -8.4436    2.2690   -1.3064
H	 -1.4637    0.9337    1.7174
H	  0.2851    0.9109    1.5556
H	 -0.5133   -0.1988    2.6668
H	  0.0538    0.6955   -0.9026
H	 -0.6370   -0.7447   -1.6339
H	 -2.1596    1.5628   -0.3267
H	 -2.1201    1.0924   -2.0138
H	 -3.3310   -0.9665   -1.5674
H	 -3.2618   -0.2680    1.4248
H	 -1.8733   -2.3887   -0.2622
H	 -1.8656   -2.1478    2.7596
H	 -2.0528   -3.5877    1.7519
H	  0.2563   -3.7894    1.5187
H	  0.4164   -2.5311    2.7374
H	  0.5789   -2.3799   -0.2694
H	  4.1568   -0.8870    1.4365
H	  3.5145    0.7394    1.0835
H	  5.0949   -1.0047   -0.8871
H	  4.5315    0.6289   -1.1985
H	  6.5287   -0.1658    0.9954
H	  5.6157    1.9518    1.7437
H	  5.4613    2.5534    0.0868
H	  7.9139    2.4238    1.7902
H	  7.5380    3.4972    0.4395
H	  8.9134    2.1156   -0.8667
H	  9.0070    0.9384    0.4486
H	  6.9266    1.1367   -1.7502
H	  7.7294   -0.3162   -1.1247
H	 -4.3282   -2.5524    1.6299
H	 -4.4842   -2.5941   -0.1247
H	 -5.7651   -0.6653    1.8577
H	 -6.5645   -1.7797    0.7404
H	 -4.0738    1.8886   -2.4239
H	 -6.2451    2.9547   -2.6648
H	 -7.9136    0.3211    0.2802
H	 -8.3980    2.9731   -1.9729
10	10	10	10	10	10	10	10	10	10	10	10	10	10	10	10	10	10	10	10	10	10	10	10	10	10	10	10	10	10	10	10	10	10	10	10	10	10	10	10	10	10	10	10	10	10	10	10	10	10	10	10	10	10	10	10	10	10	10	10	10	10	10	10	10	10	10	10	10	10	10	10	10	10	10	10	10	10	10	10	10	10	10	10	10	10	10	10	10	10	10	10	10	10	10	10	10	10	10	10	10	10	10	10	10	10	10	10	10	10	10	10	10	10	10	10	10	10	10	10	10	10	10	10	10	10	10	10	10	10	10	10	10	10	10	10	10	10	10	10	10	10	10	10	10	10	10	10	10	10	10	10	10	10	10	10	10	10	10	10	10	10	10	10	10	10	10	10	10	10	10	10	10	10	10	10	10	10	10	10	10	10	10	10	10	10	10	10	10	10
C[C@]12CC[C@H]3[C@H]([C@@H]1CC[C@@H]2OC(=O)CCC4CCCC4)CCC5=C3C=CC(=C5)O	C[C@]12CC[C@H]3[C@H]([C@@H]1CC[C@@H]2OC(=O)CCC4CCCC4)CCC5=C3C=CC(=C5)O
C[C@]12CC[C@H]3[C@H]([C@@H]1CC[C@@H]2OC(=O)CCC4CCCC4)CCC5=C3C=CC(=C5)O	C[C@]12CC[C@H]3[C@H]([C@@H]1CC[C@@H]2OC(=O)CCC4CCCC4)CCC5=C3C=CC(=C5)O
O=C(CCC1CCCC1)OC1CCC2C1CCC1c3ccccc3CCC12
