48
covid	1286	99	99	99	99	99	99	99	99	99	99	99	99	99	99	99
C	 -0.9229   -0.0831    0.9201
C	  0.5112   -0.6161    0.7932
N	  1.3936   -0.1518    1.9081
C	  0.6686    0.1059    3.1941
C	 -0.6154   -0.7208    3.3044
N	 -1.5403   -0.4562    2.1999
C	 -2.8800   -0.8225    2.3651
O	 -3.2287   -1.4391    3.3730
C	 -3.8290   -0.4419    1.3276
C	 -3.9515    0.7469    0.6322
C	 -5.0292    0.6995   -0.2902
C	 -5.7351   -0.4898   -0.2713
S	 -5.0549   -1.5618    0.8795
C	 -6.8388   -0.6554   -1.1243
C	 -7.2157    0.3920   -1.9854
C	 -6.5164    1.5999   -2.0204
N	 -5.4281    1.7977   -1.2062
O	 -4.7713    2.8808   -1.2482
S	  2.4958    1.0711    1.5094
O	  3.3148    1.3610    2.6623
O	  1.7904    2.1047    0.7837
C	  3.6169    0.3927    0.3269
C	  4.2423   -0.8360    0.2132
C	  5.0316   -0.8274   -0.9676
C	  4.8790    0.4286   -1.5530
N	  4.0266    1.1467   -0.7479
C	  5.5211    0.7944   -2.7414
C	  6.3441   -0.1588   -3.3487
C	  6.5116   -1.4204   -2.7824
C	  5.8670   -1.7727   -1.5928
Cl	  7.5322   -2.5700   -3.5602
H	 -0.9211    1.0114    0.8727
H	 -1.5180   -0.4679    0.0869
H	  0.5062   -1.7128    0.8202
H	  0.9213   -0.3349   -0.1820
H	  0.4114    1.1700    3.2653
H	  1.3352   -0.1468    4.0256
H	 -1.1147   -0.5072    4.2561
H	 -0.3835   -1.7926    3.2845
H	 -3.3128    1.6110    0.7770
H	 -7.4041   -1.5853   -1.1167
H	 -8.0746    0.2563   -2.6409
H	 -6.7455    2.4394   -2.6561
H	  4.1347   -1.6523    0.9165
H	  3.7164    2.0954   -0.9189
H	  5.3946    1.7796   -3.1791
H	  6.8582    0.0954   -4.2726
H	  6.0068   -2.7568   -1.1568
10	10	10	10	10	10	10	10	10	10	10	10	10	10	10	10	10	10	10	10	10	10	10	10	10	10	10	10	10	10	10	10	10	10	10	10	10	10	10	10	10	10	10	10	10	10	10	10	10	10	10	10	10	10	10	10	10	10	10	10	10	10	10	10	10	10	10	10	10	10	10	10	10	10	10	10	10	10	10	10	10	10	10	10	10	10	10	10	10	10	10	10	10	10	10	10	10	10	10	10	10	10	10	10	10	10	10	10	10	10	10	10	10	10	10	10	10	10	10	10	10	10	10	10	10	10	10	10	10	10	10	10	10	10	10	10	10	10	10
C1CN(CCN1C(=O)C2=CC3=C(S2)C=CC=[N+]3[O-])S(=O)(=O)C4=CC5=C(N4)C=CC(=C5)Cl	C1CN(CCN1C(=O)C2=CC3=C(S2)C=CC=[N+]3[O-])S(=O)(=O)C4=CC5=C(N4)C=CC(=C5)Cl
C1CN(CCN1C(=O)C2=CC3=C(S2)C=CC=[N+]3[O-])S(=O)(=O)C4=CC5=C(N4)C=CC(=C5)Cl	C1CN(CCN1C(=O)C2=CC3=C(S2)C=CC=[N+]3[O-])S(=O)(=O)C4=CC5=C(N4)C=CC(=C5)Cl
O=C(c1cc2[nH+]cccc2s1)N1CCN(S(=O)(=O)c2cc3ccccc3[nH]2)CC1
