54
covid	1748	99	99	99	99	99	99	99	99	99	99	99	99	99	99	99
C	 -5.3946    1.1414    2.7505
C	 -5.8548    0.3833    1.5182
O	 -6.0739    1.2812    0.4263
C	 -4.8723    1.5609   -0.3348
C	 -4.6695    0.4947   -1.4204
C	 -3.2375    0.0120   -1.4774
C	 -2.8682   -1.1847   -0.8415
C	 -1.5262   -1.6157   -0.8719
C	 -0.5763   -0.8372   -1.5399
C	 -0.9285    0.3573   -2.1870
C	 -2.2656    0.7659   -2.1416
N	  0.6396   -1.4808   -1.3988
C	  0.4734   -2.6469   -0.6893
C	 -0.8529   -2.7498   -0.3437
C	  1.9174   -1.0352   -1.9439
C	  2.8180   -0.5331   -0.8733
C	  2.6716    0.5419   -0.0200
O	  3.7758    0.5949    0.7816
C	  4.5627   -0.4399    0.3575
N	  4.0247   -1.1557   -0.6138
C	  5.8108   -0.6713    1.0773
C	  6.2256   -2.0076    1.2455
C	  7.3993   -2.3240    1.9335
C	  8.1869   -1.3074    2.4615
C	  7.8050    0.0228    2.2912
C	  6.6277    0.3448    1.5998
Cl	  6.2975    2.0319    1.3925
C	  1.6382    1.5684    0.2005
C	 -5.0796    2.9327   -0.9823
O	 -4.2774    3.4949   -1.7126
O	 -6.2800    3.4786   -0.6536
H	 -4.4172    1.6074    2.5908
H	 -5.3189    0.4697    3.6111
H	 -6.0966    1.9469    2.9907
H	 -6.8165   -0.0945    1.7333
H	 -5.1466   -0.4064    1.2481
H	 -4.0220    1.6614    0.3494
H	 -4.9495    0.8706   -2.4134
H	 -5.3277   -0.3661   -1.2460
H	 -3.6073   -1.7908   -0.3253
H	 -0.1977    0.9653   -2.7105
H	 -2.5402    1.6958   -2.6402
H	  1.3141   -3.2975   -0.4821
H	 -1.2940   -3.5568    0.2260
H	  1.7381   -0.2607   -2.6948
H	  2.3601   -1.8962   -2.4582
H	  5.6200   -2.8172    0.8381
H	  7.6945   -3.3636    2.0548
H	  9.1020   -1.5475    2.9974
H	  8.4364    0.8118    2.6939
H	  1.3614    2.0453   -0.7441
H	  1.9942    2.3501    0.8786
H	  0.7427    1.1216    0.6419
H	 -6.7460    2.8329   -0.0697
10	10	10	10	10	10	10	10	10	10	10	10	10	10	10	10	10	10	10	10	10	10	10	10	10	10	10	10	10	10	10	10	10	10	10	10	10	10	10	10	10	10	10	10	10	10	10	10	10	10	10	10	10	10	10	10	10	10	10	10	10	10	10	10	10	10	10	10	10	10	10	10	10	10	10	10	10	10	10	10	10	10	10	10	10	10	10	10	10	10	10	10	10	10	10	10	10	10	10	10	10	10	10	10	10	10	10	10	10	10	10	10	10	10	10	10	10	10	10	10	10	10	10	10	10	10	10	10	10	10	10	10	10	10	10	10	10	10	10	10	10	10	10	10	10	10	10	10	10	10	10	10	10	10	10	10	10
CCO[C@@H](CC1=CC2=C(C=C1)N(C=C2)CC3=C(OC(=N3)C4=CC=CC=C4Cl)C)C(=O)O	CCO[C@@H](CC1=CC2=C(C=C1)N(C=C2)CC3=C(OC(=N3)C4=CC=CC=C4Cl)C)C(=O)O
CCO[C@@H](CC1=CC2=C(C=C1)N(C=C2)CC3=C(OC(=N3)C4=CC=CC=C4Cl)C)C(=O)O	CCO[C@@H](CC1=CC2=C(C=C1)N(C=C2)CC3=C(OC(=N3)C4=CC=CC=C4Cl)C)C(=O)O
c1ccc(-c2nc(Cn3ccc4ccccc43)co2)cc1
