41
covid	1413	99	99	99	99	99	99	99	99	99	99	99	99	99	99	99
C	 -2.1330    3.9685   -0.1212
O	 -1.9254    2.8390   -0.9758
C	 -2.7477    1.7841   -0.6711
C	 -2.1957    0.5071   -0.4845
C	 -3.0201   -0.6286   -0.2506
C	 -2.5315   -1.9395   -0.0209
C	 -3.3934   -3.0147    0.2099
C	 -4.7659   -2.8105    0.2230
C	 -5.2769   -1.5304    0.0088
C	 -4.4238   -0.4379   -0.2235
C	 -4.9598    0.8428   -0.4287
C	 -4.1322    1.9432   -0.6575
C	 -0.7299    0.3277   -0.5364
N	  0.0764    1.0735    0.1534
N	  1.4133    0.7661    0.1104
C	  1.9243   -0.5287    0.1299
O	  1.2712   -1.5665    0.0769
C	  3.4050   -0.6180    0.2802
C	  4.2611    0.3709   -0.2252
C	  5.6380    0.2443   -0.0429
C	  6.1640   -0.8623    0.6273
C	  5.3196   -1.8633    1.1060
C	  3.9398   -1.7408    0.9275
O	  7.5158   -0.9577    0.8006
O	  6.4903    1.2036   -0.5150
H	 -2.9645    4.5850   -0.4988
H	 -2.3110    3.6805    0.9217
H	 -1.2216    4.5746   -0.1468
H	 -1.4611   -2.1416   -0.0049
H	 -2.9857   -4.0079    0.3841
H	 -5.4395   -3.6449    0.4045
H	 -6.3560   -1.3914    0.0285
H	 -6.0380    0.9949   -0.4208
H	 -4.5831    2.9129   -0.8498
H	 -0.3788   -0.4889   -1.1907
H	  1.9898    1.5007    0.5078
H	  3.8633    1.2171   -0.7751
H	  5.7125   -2.7373    1.6154
H	  3.2781   -2.5206    1.3017
H	  7.7180   -1.7723    1.2865
H	  5.9939    1.8672   -1.0163
10	10	10	10	10	10	10	10	10	10	10	10	10	10	10	10	10	10	10	10	10	10	10	10	10	10	10	10	10	10	10	10	10	10	10	10	10	10	10	10	10	10	10	10	10	10	10	10	10	10	10	10	10	10	10	10	10	10	10	10	10	10	10	10	10	10	10	10	10	10	10	10	10	10	10	10	10	10	10	10	10	10	10	10	10	10	10	10	10	10	10	10	10	10	10	10	10	10	10	10	10	10	10	10	10	10	10	10	10	10	10	10	10	10	10	10	10	10
COC1=C(C2=CC=CC=C2C=C1)/C=N/NC(=O)C3=CC(=C(C=C3)O)O	COC1=C(C2=CC=CC=C2C=C1)/C=N/NC(=O)C3=CC(=C(C=C3)O)O
COC1=C(C2=CC=CC=C2C=C1)/C=N/NC(=O)C3=CC(=C(C=C3)O)O	COC1=C(C2=CC=CC=C2C=C1)/C=N/NC(=O)C3=CC(=C(C=C3)O)O
O=C(NN=Cc1cccc2ccccc12)c1ccccc1
