70
covid	1334	99	99	99	99	99	99	99	99	99	99	99	99	99	99	99
C	 -6.3327    5.1381   -0.8922
C	 -6.6365    3.6749   -0.6258
O	 -5.4568    3.0014   -0.1696
C	 -5.2396    3.0219    1.1765
O	 -5.9396    3.6180    1.9881
C	 -3.9662    2.2814    1.5472
O	 -3.6586    1.1928    0.6907
N	 -4.4081    0.0721    1.0747
C	 -4.2212   -0.9558    0.2897
C	 -4.9204   -2.2463    0.5942
C	 -5.8185   -2.3134    1.6570
C	 -6.4658   -3.5208    1.9104
C	 -6.2019   -4.6173    1.0995
C	 -5.2937   -4.4636    0.0653
N	 -4.6505   -3.3079   -0.2084
C	 -3.3083   -0.8960   -0.9243
C	 -3.5963    0.1744   -1.9884
C	 -3.9037   -1.2482   -2.2954
C	 -1.8379   -1.2671   -0.6827
C	 -0.8897   -0.2896   -0.3193
C	  0.4535   -0.6396   -0.1152
C	  0.8484   -1.9627   -0.2716
C	 -0.0522   -2.9730   -0.6185
C	 -1.3881   -2.5944   -0.8157
N	  2.1997   -1.9420   -0.0188
C	  2.5595   -0.6493    0.3001
N	  1.5166    0.1558    0.2325
C	  3.9609   -0.2348    0.6396
N	  4.8341   -0.1671   -0.5408
C	  6.1035    0.3616   -0.2443
C	  6.4051    1.6984   -0.5339
C	  7.6543    2.2324   -0.2062
C	  8.6161    1.4260    0.4090
C	  8.3205    0.0961    0.7190
C	  7.0618   -0.4259    0.4043
C	  9.9484    1.9958    0.7373
N	 11.0446    1.3165    0.6155
N	 10.0533    3.2759    1.1921
C	  3.0973   -3.0693   -0.0874
H	 -5.9960    5.6431    0.0173
H	 -5.5268    5.2336   -1.6273
H	 -7.2177    5.6546   -1.2732
H	 -6.9437    3.1881   -1.5578
H	 -7.4632    3.5591    0.0852
H	 -3.1398    2.9969    1.4889
H	 -4.0431    1.9332    2.5839
H	 -6.0156   -1.4482    2.2811
H	 -7.1732   -3.6016    2.7310
H	 -6.6906   -5.5699    1.2708
H	 -5.0534   -5.2944   -0.5930
H	 -2.7595    0.6353   -2.5009
H	 -4.4330    0.8465   -1.8301
H	 -4.9475   -1.5364   -2.3524
H	 -3.2762   -1.7591   -3.0173
H	 -1.1860    0.7474   -0.1991
H	  0.2497   -4.0073   -0.7353
H	 -2.1074   -3.3664   -1.0888
H	  4.3681   -0.9285    1.3840
H	  3.9114    0.7525    1.1190
H	  4.3701    0.4101   -1.2429
H	  5.6701    2.3370   -1.0194
H	  7.8810    3.2664   -0.4557
H	  9.0516   -0.5331    1.2190
H	  6.8405   -1.4622    0.6441
H	 10.8584    0.3897    0.2197
H	 10.9874    3.4474    1.5542
H	  9.3319    3.5687    1.8423
H	  2.5912   -3.9269   -0.5364
H	  3.4085   -3.3197    0.9284
H	  3.9613   -2.8056   -0.7006
10	10	10	10	10	10	10	10	10	10	10	10	10	10	10	10	10	10	10	10	10	10	10	10	10	10	10	10	10	10	10	10	10	10	10	10	10	10	10	10	10	10	10	10	10	10	10	10	10	10	10	10	10	10	10	10	10	10	10	10	10	10	10	10	10	10	10	10	10	10	10	10	10	10	10	10	10	10	10	10	10	10	10	10	10	10	10	10	10	10	10	10	10	10	10	10	10	10	10	10	10	10	10	10	10	10	10	10	10	10	10	10	10	10	10	10	10	10	10	10	10	10	10	10	10	10	10	10	10	10	10	10	10	10	10	10	10	10	10	10	10	10	10	10	10	10	10	10	10	10	10	10	10	10	10	10	10	10	10	10	10	10	10	10	10	10	10	10	10	10	10	10	10	10	10	10	10	10	10	10	10	10	10	10	10	10	10	10	10	10	10	10	10	10	10	10	10	10	10	10	10	10	10	10	10
CCOC(=O)CO/N=C(/C1=CC=CC=N1)\\C2(CC2)C3=CC4=C(C=C3)N(C(=N4)CNC5=CC=C(C=C5)C(=N)N)C	CCOC(=O)CO/N=C(/C1=CC=CC=N1)\\C2(CC2)C3=CC4=C(C=C3)N(C(=N4)CNC5=CC=C(C=C5)C(=N)N)C
CCOC(=O)CO/N=C(/C1=CC=CC=N1)\\C2(CC2)C3=CC4=C(C=C3)N(C(=N4)CNC5=CC=C(C=C5)C(=N)N)C	CCOC(=O)CO/N=C(/C1=CC=CC=N1)\\C2(CC2)C3=CC4=C(C=C3)N(C(=N4)CNC5=CC=C(C=C5)C(=N)N)C
N=C(c1ccccn1)C1(c2ccc3[nH]c(CNc4ccccc4)nc3c2)CC1
