44
covid	1814	99	99	99	99	99	99	99	99	99	99	99	99	99	99	99
C	  7.9884   -0.8672    0.3637
O	  6.5799   -1.0514    0.3001
C	  5.8078    0.0780    0.2901
C	  6.2747    1.3901    0.3361
C	  5.3700    2.4529    0.3207
C	  3.9966    2.2077    0.2594
C	  3.4999    0.8963    0.2117
C	  4.4293   -0.1581    0.2283
C	  2.0529    0.6325    0.1457
C	  1.1673    1.2140    1.0617
C	 -0.2005    0.9535    0.9858
C	 -0.7407    0.1122    0.0062
C	  0.1335   -0.4677   -0.9109
C	  1.5116   -0.2106   -0.8393
N	 -2.1417   -0.0871    0.0163
C	 -2.8823   -0.8535   -0.8439
O	 -2.4410   -1.5012   -1.7897
C	 -4.3619   -0.8455   -0.6404
C	 -5.1537   -0.6228    0.4231
C	 -6.6023   -0.8127    0.0860
C	 -6.5977   -0.7990   -1.4366
C	 -5.1924   -1.2297   -1.8375
C	 -4.7579   -0.2572    1.7818
O	 -3.7102    0.2677    2.1060
O	 -5.7103   -0.5459    2.6798
F	 -1.0115    1.5405    1.8802
H	  8.2791   -0.3618    1.2905
H	  8.3558   -0.3262   -0.5146
H	  8.4552   -1.8569    0.3640
H	  7.3333    1.6210    0.3836
H	  5.7351    3.4764    0.3530
H	  3.3131    3.0543    0.2356
H	  4.0803   -1.1891    0.2042
H	  1.5278    1.8664    1.8518
H	 -0.2164   -1.1275   -1.6984
H	  2.1633   -0.6748   -1.5786
H	 -2.6218    0.3838    0.7848
H	 -6.9622   -1.7733    0.4710
H	 -7.2364   -0.0108    0.4772
H	 -6.7930    0.2184   -1.8004
H	 -7.3686   -1.4501   -1.8606
H	 -5.1435   -2.3118   -2.0037
H	 -4.8785   -0.7142   -2.7508
H	 -5.3301   -0.2598    3.5369
10	10	10	10	10	10	10	10	10	10	10	10	10	10	10	10	10	10	10	10	10	10	10	10	10	10	10	10	10	10	10	10	10	10	10	10	10	10	10	10	10	10	10	10	10	10	10	10	10	10	10	10	10	10	10	10	10	10	10	10	10	10	10	10	10	10	10	10	10	10	10	10	10	10	10	10	10	10	10	10	10	10	10	10	10	10	10	10	10	10	10	10	10	10	10	10	10	10	10	10	10	10	10	10	10	10	10	10	10	10	10	10	10	10	10	10	10	10	10	10	10	10	10	10	10	10	10
COC1=CC=CC(=C1)C2=CC(=C(C=C2)NC(=O)C3=C(CCC3)C(=O)O)F	COC1=CC=CC(=C1)C2=CC(=C(C=C2)NC(=O)C3=C(CCC3)C(=O)O)F
COC1=CC=CC(=C1)C2=CC(=C(C=C2)NC(=O)C3=C(CCC3)C(=O)O)F	COC1=CC=CC(=C1)C2=CC(=C(C=C2)NC(=O)C3=C(CCC3)C(=O)O)F
O=C(Nc1ccc(-c2ccccc2)cc1)C1=CCCC1
