49
covid	1773	99	99	99	99	99	99	99	99	99	99	99	99	99	99	99
C	  7.7275   -1.0449    2.8451
C	  6.2685   -0.6730    2.7561
O	  5.5772   -0.5885    3.7644
N	  5.8625   -0.4802    1.4473
C	  4.5774   -0.1216    0.9926
C	  3.4929    0.1282    1.8316
C	  2.2496    0.4826    1.2950
C	  2.0749    0.6042   -0.0831
C	  3.1480    0.3369   -0.9280
C	  4.3931   -0.0157   -0.3913
O	  0.8091    0.9215   -0.4817
C	  0.6526    1.6455   -1.7093
C	 -0.2527    0.8830   -2.6917
C	  0.2202   -0.5453   -2.9575
C	 -1.7172    0.8534   -2.1772
O	 -2.6203    1.2431   -2.9181
N	 -1.8761    0.3373   -0.9049
C	 -3.0741    0.1386   -0.1928
C	 -4.3483    0.3803   -0.7200
C	 -5.5149    0.1618    0.0436
C	 -5.3618   -0.3294    1.3477
C	 -4.0956   -0.5709    1.8948
C	 -2.9587   -0.3354    1.1202
N	 -6.5191   -0.6258    2.1811
O	 -7.3829   -1.3665    1.6992
O	 -6.5326   -0.1386    3.3183
C	 -6.8663    0.4572   -0.5540
F	 -7.7112    1.0634    0.3224
F	 -7.4967   -0.6567   -1.0073
F	 -6.7978    1.3005   -1.6231
O	 -0.2140    1.5822   -3.9478
H	  7.8663   -2.0700    2.4909
H	  8.3323   -0.3595    2.2451
H	  8.0594   -0.9765    3.8851
H	  6.5639   -0.6226    0.7315
H	  3.5768    0.0597    2.9118
H	  1.4184    0.6732    1.9697
H	  3.0514    0.3735   -2.0081
H	  5.2128   -0.2135   -1.0778
H	  0.1762    2.6004   -1.4504
H	  1.5989    1.9289   -2.1840
H	 -0.4442   -1.0413   -3.6752
H	  0.2417   -1.1582   -2.0512
H	  1.2184   -0.5478   -3.4085
H	 -1.0149    0.1362   -0.3981
H	 -4.4678    0.7486   -1.7372
H	 -3.9859   -0.9450    2.9115
H	 -1.9812   -0.5303    1.5579
H	 -1.1355    1.5843   -4.2844
10	10	10	10	10	10	10	10	10	10	10	10	10	10	10	10	10	10	10	10	10	10	10	10	10	10	10	10	10	10	10	10	10	10	10	10	10	10	10	10	10	10	10	10	10	10	10	10	10	10	10	10	10	10	10	10	10	10	10	10	10	10	10	10	10	10	10	10	10	10	10	10	10	10	10	10	10	10	10	10	10	10	10	10	10	10	10	10	10	10	10	10	10	10	10	10	10	10	10	10	10	10	10	10	10	10	10	10	10	10	10	10	10	10	10	10	10	10	10	10	10	10	10	10	10	10	10	10	10	10	10	10	10	10	10	10	10	10	10	10	10	10
CC(=O)NC1=CC=C(C=C1)OC[C@@](C)(C(=O)NC2=CC(=C(C=C2)[N+](=O)[O-])C(F)(F)F)O	CC(=O)NC1=CC=C(C=C1)OC[C@@](C)(C(=O)NC2=CC(=C(C=C2)[N+](=O)[O-])C(F)(F)F)O
CC(=O)NC1=CC=C(C=C1)OC[C@@](C)(C(=O)NC2=CC(=C(C=C2)[N+](=O)[O-])C(F)(F)F)O	CC(=O)NC1=CC=C(C=C1)OC[C@@](C)(C(=O)NC2=CC(=C(C=C2)[N+](=O)[O-])C(F)(F)F)O
O=C(CCOc1ccccc1)Nc1ccccc1
