52
covid	1419	99	99	99	99	99	99	99	99	99	99	99	99	99	99	99
C	  1.2870   -2.3063    2.3382
N	  1.8255   -1.9672    1.0436
C	  1.3030   -1.0959    0.2756
N	  1.9665   -0.8408   -0.9239
S	  3.3154   -1.5407   -1.5582
O	  3.1537   -2.9776   -1.6128
O	  3.6250   -0.7954   -2.7640
C	  4.5850   -1.1469   -0.3769
C	  5.1819    0.1189   -0.4058
C	  6.2027    0.4185    0.4989
C	  6.6240   -0.5471    1.4151
C	  6.0383   -1.8137    1.4333
C	  5.0183   -2.1194    0.5299
Cl	  7.8803   -0.1723    2.5302
N	  0.1762   -0.2934    0.3633
C	 -0.8636   -0.3943    1.3757
C	 -2.0050    0.4822    0.8497
C	 -1.2863    1.1832   -0.2776
N	 -0.1007    0.7199   -0.5425
C	 -1.8878    2.3099   -1.0405
C	 -1.1840    2.8332   -2.1359
C	 -1.7142    3.8913   -2.8794
C	 -2.9498    4.4297   -2.5307
C	 -3.6565    3.9212   -1.4426
C	 -3.1259    2.8641   -0.6949
Cl	 -3.6077    5.7272   -3.4461
C	 -3.2049   -0.3336    0.4104
C	 -3.1598   -1.1647   -0.7205
C	 -4.2748   -1.9158   -1.0951
C	 -5.4451   -1.8518   -0.3431
C	 -5.5016   -1.0398    0.7871
C	 -4.3881   -0.2876    1.1648
H	  1.1395   -1.4251    2.9691
H	  2.0045   -2.9467    2.8623
H	  0.3580   -2.8770    2.2512
H	  1.5554   -0.0913   -1.4739
H	  4.8610    0.8665   -1.1279
H	  6.6680    1.4009    0.4814
H	  6.3696   -2.5661    2.1439
H	  4.5567   -3.1051    0.5442
H	 -1.1826   -1.4290    1.5362
H	 -0.4956    0.0144    2.3236
H	 -2.2922    1.2169    1.6113
H	 -0.2185    2.4222   -2.4245
H	 -1.1587    4.2862   -3.7270
H	 -4.6222    4.3415   -1.1719
H	 -3.7050    2.4950    0.1452
H	 -2.2552   -1.2425   -1.3226
H	 -4.2276   -2.5548   -1.9737
H	 -6.3115   -2.4391   -0.6358
H	 -6.4143   -0.9958    1.3764
H	 -4.4568    0.3340    2.0553
10	10	10	10	10	10	10	10	10	10	10	10	10	10	10	10	10	10	10	10	10	10	10	10	10	10	10	10	10	10	10	10	10	10	10	10	10	10	10	10	10	10	10	10	10	10	10	10	10	10	10	10	10	10	10	10	10	10	10	10	10	10	10	10	10	10	10	10	10	10	10	10	10	10	10	10	10	10	10	10	10	10	10	10	10	10	10	10	10	10	10	10	10	10	10	10	10	10	10	10	10	10	10	10	10	10	10	10	10	10	10	10	10	10	10	10	10	10	10	10	10	10	10	10	10	10	10	10	10	10	10	10	10	10	10	10	10	10	10	10	10	10	10	10	10	10	10	10	10	10	10
CN=C(NS(=O)(=O)C1=CC=C(C=C1)Cl)N2C[C@@H](C(=N2)C3=CC=C(C=C3)Cl)C4=CC=CC=C4	CN=C(NS(=O)(=O)C1=CC=C(C=C1)Cl)N2C[C@@H](C(=N2)C3=CC=C(C=C3)Cl)C4=CC=CC=C4
CN=C(NS(=O)(=O)C1=CC=C(C=C1)Cl)N2C[C@@H](C(=N2)C3=CC=C(C=C3)Cl)C4=CC=CC=C4	CN=C(NS(=O)(=O)C1=CC=C(C=C1)Cl)N2C[C@@H](C(=N2)C3=CC=C(C=C3)Cl)C4=CC=CC=C4
N=C(NS(=O)(=O)c1ccccc1)N1CC(c2ccccc2)C(c2ccccc2)=N1
