58
covid	1772	99	99	99	99	99	99	99	99	99	99	99	99	99	99	99
C	 -1.2646   -0.0129    1.6445
N	 -1.4096   -1.2191    0.8357
C	 -0.3475   -2.2353    0.9831
C	  0.9865   -1.8213    0.3396
O	  1.6409   -0.8677    1.1871
C	  2.8611   -0.4057    0.7792
C	  3.5081   -0.7324   -0.4114
C	  4.7616   -0.1835   -0.7055
C	  5.3836    0.6997    0.1866
C	  4.7292    1.0256    1.3789
C	  3.4781    0.4757    1.6690
C	  6.7416    1.2790   -0.1327
C	  7.8940    0.3048    0.1205
C	  9.1869    0.8524   -0.4482
O	  9.3238    1.2912   -1.5830
N	 10.2075    0.7994    0.4512
C	  9.9185    0.4999    1.7378
O	 10.6982    0.5667    2.6718
S	  8.2451    0.0416    1.8958
C	 -2.0122   -1.1252   -0.4206
C	 -2.9469   -0.1497   -0.7117
C	 -3.5094   -0.1677   -1.9731
N	 -3.1820   -1.0453   -2.9302
C	 -2.2815   -1.9538   -2.5589
N	 -1.6911   -2.0417   -1.3567
O	 -4.4223    0.8002   -2.3422
C	 -5.6093    0.8182   -1.6449
C	 -6.3164   -0.3375   -1.3051
C	 -7.5293   -0.2400   -0.6135
C	 -8.0454    1.0120   -0.2741
C	 -7.3427    2.1638   -0.6397
C	 -6.1323    2.0707   -1.3297
O	 -9.2131    1.2455    0.3982
C	 -9.9714    0.1060    0.7844
H	 -2.2402    0.3783    1.9507
H	 -0.7199   -0.2248    2.5715
H	 -0.7168    0.7659    1.1027
H	 -0.6814   -3.1935    0.5655
H	 -0.1912   -2.4181    2.0540
H	  0.8242   -1.3919   -0.6548
H	  1.6175   -2.7147    0.2592
H	  3.0655   -1.4070   -1.1368
H	  5.2441   -0.4489   -1.6441
H	  5.1852    1.7051    2.0955
H	  2.9814    0.7355    2.6006
H	  6.7315    1.5804   -1.1892
H	  6.8933    2.2160    0.4205
H	  7.7132   -0.6711   -0.3437
H	 11.1170    1.1635    0.2161
H	 -3.2533    0.5987    0.0033
H	 -1.9963   -2.6947   -3.2975
H	 -5.9424   -1.3199   -1.5831
H	 -8.0466   -1.1602   -0.3631
H	 -7.7456    3.1421   -0.3887
H	 -5.6014    2.9741   -1.6165
H	 -9.4085   -0.5262    1.4790
H	-10.3019   -0.4633   -0.0908
H	-10.8650    0.4608    1.3072
10	10	10	10	10	10	10	10	10	10	10	10	10	10	10	10	10	10	10	10	10	10	10	10	10	10	10	10	10	10	10	10	10	10	10	10	10	10	10	10	10	10	10	10	10	10	10	10	10	10	10	10	10	10	10	10	10	10	10	10	10	10	10	10	10	10	10	10	10	10	10	10	10	10	10	10	10	10	10	10	10	10	10	10	10	10	10	10	10	10	10	10	10	10	10	10	10	10	10	10	10	10	10	10	10	10	10	10	10	10	10	10	10	10	10	10	10	10	10	10	10	10	10	10	10	10	10	10	10	10	10	10	10	10	10	10	10	10	10	10	10	10	10	10	10	10	10	10	10	10	10	10	10	10	10	10	10	10	10	10	10	10	10	10	10	10	10	10	10
CN(CCOC1=CC=C(C=C1)CC2C(=O)NC(=O)S2)C3=CC(=NC=N3)OC4=CC=C(C=C4)OC	CN(CCOC1=CC=C(C=C1)CC2C(=O)NC(=O)S2)C3=CC(=NC=N3)OC4=CC=C(C=C4)OC
CN(CCOC1=CC=C(C=C1)CC2C(=O)NC(=O)S2)C3=CC(=NC=N3)OC4=CC=C(C=C4)OC	CN(CCOC1=CC=C(C=C1)CC2C(=O)NC(=O)S2)C3=CC(=NC=N3)OC4=CC=C(C=C4)OC
O=C1NC(=O)C(Cc2ccc(OCCNc3cc(Oc4ccccc4)ncn3)cc2)S1
