73
covid	2029	99	99	99	99	99	99	99	99	99	99	99	99	99	99	99
C	 -0.4476   -1.5327   -3.1039
C	 -0.3430   -0.7804   -1.7482
C	  1.1214   -0.9778   -1.1733
C	  1.7899    0.3879   -0.8451
C	  0.7743    1.3427   -0.2433
C	 -0.2894    1.6456   -1.2929
O	 -0.5502    0.5818   -2.2064
N	 -1.5417    2.0586   -0.6900
C	 -1.9729    3.3454   -0.4494
C	 -1.4237    4.5874   -0.8102
C	 -2.0852    5.7460   -0.4036
C	 -3.2533    5.6738    0.3473
C	 -3.7926    4.4351    0.7053
C	 -3.1562    3.2416    0.3058
C	 -3.4332    1.8512    0.4908
C	 -4.3722    1.0237    1.1184
C	 -4.3457   -0.4043    1.0837
C	 -3.3455   -1.1197    0.4001
C	 -3.0330   -2.4821    0.1692
C	 -3.6611   -3.6899    0.5459
C	 -3.0939   -4.9139    0.1892
C	 -1.9037   -4.9527   -0.5199
C	 -1.2639   -3.7714   -0.9070
C	 -1.8411   -2.5278   -0.5765
N	 -1.4558   -1.2059   -0.8542
C	 -2.3631   -0.3790   -0.2309
C	 -2.4256    1.1736   -0.1688
C	 -5.5026   -0.9343    1.8811
N	 -6.1429    0.2568    2.3571
C	 -5.5255    1.4150    1.9390
O	 -5.8890    2.5397    2.2227
N	  3.0385    0.2914   -0.0559
C	  2.9418    0.2765    1.4072
C	  4.2157   -0.0078   -0.7509
O	  4.2259   -0.3157   -1.9438
C	  5.5083    0.0581   -0.0315
C	  6.3639   -1.0467   -0.0899
C	  7.5870   -1.0113    0.5820
C	  7.9542    0.1289    1.2996
C	  7.1201    1.2487    1.3176
C	  5.8962    1.2191    0.6480
O	  1.1124   -1.8375   -0.0142
C	  2.0856   -2.8771   -0.0752
H	 -0.1017   -2.5687   -3.0611
H	 -1.4778   -1.5219   -3.4859
H	  0.1642   -1.0358   -3.8655
H	  1.7405   -1.4445   -1.9546
H	  2.0880    0.8260   -1.8090
H	  0.3328    0.9099    0.6636
H	  1.2445    2.2842    0.0705
H	  0.0525    2.4798   -1.9171
H	 -0.5123    4.6648   -1.3948
H	 -1.6858    6.7183   -0.6800
H	 -3.7618    6.5823    0.6542
H	 -4.7116    4.4029    1.2863
H	 -4.5854   -3.6724    1.1151
H	 -3.5829   -5.8405    0.4741
H	 -1.4639   -5.9131   -0.7783
H	 -0.3269   -3.8405   -1.4452
H	 -6.2068   -1.4974    1.2614
H	 -5.1706   -1.5263    2.7362
H	 -6.9621    0.2940    2.9522
H	  2.8739    1.3104    1.7655
H	  3.8003   -0.2198    1.8679
H	  2.0461   -0.2681    1.7261
H	  6.0790   -1.9302   -0.6560
H	  8.2501   -1.8712    0.5508
H	  8.9046    0.1515    1.8303
H	  7.4235    2.1432    1.8602
H	  5.2615    2.0998    0.6480
H	  1.9637   -3.4723   -0.9868
H	  3.0982   -2.4740   -0.0459
H	  1.9446   -3.5310    0.7930
10	10	10	10	10	10	10	10	10	10	10	10	10	10	10	10	10	10	10	10	10	10	10	10	10	10	10	10	10	10	10	10	10	10	10	10	10	10	10	10	10	10	10	10	10	10	10	10	10	10	10	10	10	10	10	10	10	10	10	10	10	10	10	10	10	10	10	10	10	10	10	10	10	10	10	10	10	10	10	10	10	10	10	10	10	10	10	10	10	10	10	10	10	10	10	10	10	10	10	10	10	10	10	10	10	10	10	10	10	10	10	10	10	10	10	10	10	10	10	10	10	10	10	10	10	10	10	10	10	10	10	10	10	10	10	10	10	10	10	10	10	10	10	10	10	10	10	10	10	10	10	10	10	10	10	10	10	10	10	10	10	10	10	10	10	10	10	10	10	10	10	10	10	10	10	10	10	10	10	10	10	10	10	10	10	10	10	10	10	10	10	10	10	10	10	10	10	10	10	10	10	10	10	10	10	10	10	10	10	10	10	10	10	10
C[C@@]12[C@@H]([C@@H](C[C@@H](O1)N3C4=CC=CC=C4C5=C6C(=C7C8=CC=CC=C8N2C7=C53)CNC6=O)N(C)C(=O)C9=CC=CC=C9)OC	C[C@@]12[C@@H]([C@@H](C[C@@H](O1)N3C4=CC=CC=C4C5=C6C(=C7C8=CC=CC=C8N2C7=C53)CNC6=O)N(C)C(=O)C9=CC=CC=C9)OC
C[C@@]12[C@@H]([C@@H](C[C@@H](O1)N3C4=CC=CC=C4C5=C6C(=C7C8=CC=CC=C8N2C7=C53)CNC6=O)N(C)C(=O)C9=CC=CC=C9)OC	C[C@@]12[C@@H]([C@@H](C[C@@H](O1)N3C4=CC=CC=C4C5=C6C(=C7C8=CC=CC=C8N2C7=C53)CNC6=O)N(C)C(=O)C9=CC=CC=C9)OC
O=C(NC1CC2OC(C1)n1c3ccccc3c3c4c(c5c6ccccc6n2c5c31)CNC4=O)c1ccccc1
