47
covid	1785	99	99	99	99	99	99	99	99	99	99	99	99	99	99	99
C	  5.1566    3.3560   -0.5414
C	  4.4052    3.2707    0.7758
O	  4.4682    1.9512    1.3128
C	  3.5216    1.0381    0.9444
C	  2.5059    1.2273    0.0088
C	  1.6017    0.1934   -0.2726
C	  1.6991   -1.0422    0.3795
C	  2.7325   -1.2316    1.3041
C	  3.6315   -0.1983    1.5842
C	  0.7552   -2.1275    0.1015
N	  1.1851   -3.3967    0.0294
N	  0.0913   -4.1201   -0.2337
C	 -1.0553   -3.3601   -0.3171
C	 -0.6581   -2.0538   -0.1134
C	 -1.5709   -0.9286   -0.0636
C	 -2.3082   -0.5629   -1.1983
C	 -3.1848    0.5229   -1.1483
C	 -3.3130    1.2478    0.0394
C	 -2.5926    0.8866    1.1807
C	 -1.7163   -0.1990    1.1239
S	 -4.4435    2.6177    0.1176
O	 -4.9122    2.7160    1.4864
O	 -5.3794    2.4748   -0.9814
C	 -3.4089    4.0185   -0.2187
C	 -2.2769   -4.0360   -0.5504
C	 -2.2584   -5.3662   -0.6963
C	 -0.9393   -6.0351   -0.5957
N	  0.1978   -5.4617   -0.3722
H	  4.7023    2.7170   -1.3044
H	  5.1699    4.3847   -0.9126
H	  6.1893    3.0140   -0.4158
H	  4.9058    3.9230    1.5005
H	  3.3783    3.6441    0.6975
H	  2.3929    2.1585   -0.5347
H	  0.8347    0.3636   -1.0236
H	  2.8458   -2.1885    1.8105
H	  4.4282   -0.3640    2.3056
H	 -2.2041   -1.1211   -2.1269
H	 -3.7626    0.7882   -2.0314
H	 -2.7117    1.4319    2.1148
H	 -1.1568   -0.4788    2.0153
H	 -2.9640    3.9035   -1.2089
H	 -2.6358    4.0846    0.5492
H	 -4.0333    4.9142   -0.1942
H	 -3.2085   -3.4814   -0.6015
H	 -3.1411   -5.9650   -0.8731
H	 -0.9629   -7.1300   -0.7257
10	10	10	10	10	10	10	10	10	10	10	10	10	10	10	10	10	10	10	10	10	10	10	10	10	10	10	10	10	10	10	10	10	10	10	10	10	10	10	10	10	10	10	10	10	10	10	10	10	10	10	10	10	10	10	10	10	10	10	10	10	10	10	10	10	10	10	10	10	10	10	10	10	10	10	10	10	10	10	10	10	10	10	10	10	10	10	10	10	10	10	10	10	10	10	10	10	10	10	10	10	10	10	10	10	10	10	10	10	10	10	10	10	10	10	10	10	10	10	10	10	10	10	10	10	10	10	10	10	10	10	10	10	10	10	10
CCOC1=CC=C(C=C1)C2=NN3C(=C2C4=CC=C(C=C4)S(=O)(=O)C)C=CC=N3	CCOC1=CC=C(C=C1)C2=NN3C(=C2C4=CC=C(C=C4)S(=O)(=O)C)C=CC=N3
CCOC1=CC=C(C=C1)C2=NN3C(=C2C4=CC=C(C=C4)S(=O)(=O)C)C=CC=N3	CCOC1=CC=C(C=C1)C2=NN3C(=C2C4=CC=C(C=C4)S(=O)(=O)C)C=CC=N3
c1ccc(-c2nn3ncccc3c2-c2ccccc2)cc1
