61
covid	1717	99	99	99	99	99	99	99	99	99	99	99	99	99	99	99
C	 -4.0876    0.0536    1.7585
C	 -4.1129    0.0558    0.2013
C	 -3.7087   -1.3455   -0.2920
C	 -2.2391   -1.6674    0.0329
C	 -1.2431   -0.5781   -0.4368
C	  0.2004   -0.8403    0.0821
C	  0.7848   -2.1495   -0.4726
C	  2.1946   -2.3987    0.0673
C	  3.0856   -1.1844    0.0002
C	  2.5725    0.0504   -0.1598
C	  1.1432    0.3159   -0.2288
C	  0.6947    1.5387   -0.5635
C	 -0.7568    1.9014   -0.6576
C	 -1.6860    0.8538   -0.0236
C	 -3.1446    1.0789   -0.4298
C	 -3.7865    2.4270   -0.1122
C	 -5.3043    2.1521   -0.1274
C	 -5.4799    0.6187   -0.2920
C	 -5.7968    0.2914   -1.6995
C	 -6.0702    0.0299   -2.8400
O	 -6.5564    0.1623    0.5153
O	  4.4195   -1.5118    0.0959
C	  5.4071   -0.4904    0.0785
C	  5.5785    0.1861    1.4354
C	  6.9935    0.7530    1.4051
C	  7.7565   -0.0674    0.3648
C	  6.7797   -1.1278   -0.1228
H	 -4.4000    1.0122    2.1846
H	 -3.0985   -0.1631    2.1697
H	 -4.7669   -0.7114    2.1528
H	 -4.3597   -2.1108    0.1475
H	 -3.8275   -1.4252   -1.3789
H	 -1.9967   -2.6217   -0.4487
H	 -2.1254   -1.8357    1.1099
H	 -1.2266   -0.6179   -1.5368
H	  0.1551   -0.9294    1.1780
H	  0.8143   -2.1110   -1.5700
H	  0.1608   -3.0076   -0.2020
H	  2.1362   -2.7287    1.1121
H	  2.6440   -3.2208   -0.5031
H	  3.2192    0.9167   -0.2456
H	  1.3949    2.3368   -0.8006
H	 -1.0030    2.0447   -1.7170
H	 -0.9107    2.8668   -0.1608
H	 -1.5896    0.9523    1.0655
H	 -3.1809    0.9685   -1.5255
H	 -3.5142    3.1891   -0.8498
H	 -3.4787    2.7966    0.8725
H	 -5.7856    2.7141   -0.9369
H	 -5.7538    2.5088    0.8074
H	 -6.3106   -0.2088   -3.8505
H	 -7.3732    0.5144    0.1227
H	  5.2369    0.2318   -0.7302
H	  5.4757   -0.5465    2.2458
H	  4.8318    0.9650    1.6162
H	  6.9793    1.8084    1.1100
H	  7.4632    0.6944    2.3923
H	  8.0612    0.5797   -0.4659
H	  8.6632   -0.5168    0.7818
H	  6.8736   -2.0437    0.4745
H	  6.9545   -1.4088   -1.1662
10	10	10	10	10	10	10	10	10	10	10	10	10	10	10	10	10	10	10	10	10	10	10	10	10	10	10	10	10	10	10	10	10	10	10	10	10	10	10	10	10	10	10	10	10	10	10	10	10	10	10	10	10	10	10	10	10	10	10	10	10	10	10	10	10	10	10	10	10	10	10	10	10	10	10	10	10	10	10	10	10	10	10	10	10	10	10	10	10	10	10	10	10	10	10	10	10	10	10	10	10	10	10	10	10	10	10	10	10	10	10	10	10	10	10	10	10	10	10	10	10	10	10	10	10	10	10	10	10	10	10	10	10	10	10	10	10	10	10	10	10	10	10	10	10	10	10	10	10	10	10	10	10	10	10	10	10	10	10	10	10	10	10	10	10	10	10	10	10	10	10	10	10	10	10	10	10	10
C[C@]12CC[C@@H]3[C@H]4CCC(=CC4=CC[C@H]3[C@@H]1CC[C@]2(C#C)O)OC5CCCC5	C[C@]12CC[C@@H]3[C@H]4CCC(=CC4=CC[C@H]3[C@@H]1CC[C@]2(C#C)O)OC5CCCC5
C[C@]12CC[C@@H]3[C@H]4CCC(=CC4=CC[C@H]3[C@@H]1CC[C@]2(C#C)O)OC5CCCC5	C[C@]12CC[C@@H]3[C@H]4CCC(=CC4=CC[C@H]3[C@@H]1CC[C@]2(C#C)O)OC5CCCC5
C1=C(OC2CCCC2)CCC2C1=CCC1C3CCCC3CCC21
