39
covid	1757	99	99	99	99	99	99	99	99	99	99	99	99	99	99	99
C	  3.3869    2.0127    0.1344
C	  3.6206    0.5857   -0.3614
C	  2.7942   -0.3876    0.4931
O	  3.2731   -1.0183    1.4278
N	  1.4558   -0.3965    0.1177
C	  0.3842   -1.1576    0.6537
C	 -0.9262   -0.9815    0.1363
C	 -1.9711   -1.7777    0.6211
C	 -1.7472   -2.7222    1.6286
C	 -0.4735   -2.8654    2.1638
C	  0.5823   -2.0906    1.6797
S	 -3.5930   -1.6516   -0.0695
O	 -4.4275   -2.6344    0.5981
O	 -3.4509   -1.6711   -1.5106
C	 -4.1300   -0.0479    0.4757
C	 -3.3688    1.1211   -0.0724
C	 -2.1145    1.1228   -0.6713
C	 -1.1355    0.0657   -0.8989
O	 -0.3390    0.0578   -1.8382
S	 -1.6813    2.6952   -1.2271
C	 -3.1170    3.3870   -0.6369
C	 -3.9283    2.4489   -0.0473
C	  5.1005    0.2070   -0.2533
F	  5.5964    0.3134    0.9959
F	  5.8539    1.0177   -1.0416
F	  5.3119   -1.0556   -0.6967
O	  3.1341    0.5344   -1.7241
H	  2.3331    2.2994    0.0384
H	  3.6718    2.1266    1.1857
H	  3.9592    2.7311   -0.4631
H	  1.2524    0.1255   -0.7443
H	 -2.5499   -3.3586    1.9986
H	 -0.2889   -3.5976    2.9481
H	  1.5611   -2.2630    2.1185
H	 -4.0908   -0.0438    1.5706
H	 -5.1830    0.0270    0.1792
H	 -3.3059    4.4453   -0.7596
H	 -4.8975    2.6994    0.3712
H	  3.4482   -0.3026   -2.1198
10	10	10	10	10	10	10	10	10	10	10	10	10	10	10	10	10	10	10	10	10	10	10	10	10	10	10	10	10	10	10	10	10	10	10	10	10	10	10	10	10	10	10	10	10	10	10	10	10	10	10	10	10	10	10	10	10	10	10	10	10	10	10	10	10	10	10	10	10	10	10	10	10	10	10	10	10	10	10	10	10	10	10	10	10	10	10	10	10	10	10	10	10	10	10	10	10	10	10	10	10	10	10	10	10	10	10	10	10	10	10	10
C[C@](C(=O)NC1=C2C(=CC=C1)S(=O)(=O)CC3=C(C2=O)SC=C3)(C(F)(F)F)O	C[C@](C(=O)NC1=C2C(=CC=C1)S(=O)(=O)CC3=C(C2=O)SC=C3)(C(F)(F)F)O
C[C@](C(=O)NC1=C2C(=CC=C1)S(=O)(=O)CC3=C(C2=O)SC=C3)(C(F)(F)F)O	C[C@](C(=O)NC1=C2C(=CC=C1)S(=O)(=O)CC3=C(C2=O)SC=C3)(C(F)(F)F)O
O=C1c2ccccc2S(=O)(=O)Cc2ccsc21
