60
covid	1618	99	99	99	99	99	99	99	99	99	99	99	99	99	99	99
C	  7.0160    1.8284   -1.6734
C	  6.1963    1.3856   -0.4975
C	  4.8182    1.6388   -0.4612
C	  4.0429    1.2597    0.6440
C	  4.6731    0.6371    1.7300
C	  6.0465    0.3961    1.7090
C	  6.8056    0.7716    0.6013
C	  2.5528    1.5183    0.6695
C	  1.6776    0.4898   -0.0747
C	  1.9598   -0.9603    0.3433
C	  1.0677   -1.9552   -0.4185
C	  1.3152   -1.7580   -1.9213
N	  1.2855   -0.3752   -2.3529
C	  1.7129    0.6773   -1.5881
O	  1.9793    1.7439   -2.1373
C	 -0.3793   -1.9037    0.0530
C	 -1.4161   -1.3265   -0.6902
C	 -2.7362   -1.2845   -0.2100
C	 -3.0513   -1.8614    1.0292
C	 -2.0203   -2.4425    1.7763
C	 -0.7049   -2.4575    1.2981
O	 -4.3620   -1.8741    1.4213
C	 -4.6405   -2.1890    2.7802
O	 -3.6041   -0.6859   -1.0867
C	 -4.6515    0.1194   -0.5556
C	 -5.3217    0.8626   -1.7130
C	 -6.0763    2.0039   -1.0429
C	 -5.3244    2.2933    0.2564
C	 -4.1784    1.2865    0.3123
H	  7.8768    1.1676   -1.8203
H	  7.3768    2.8495   -1.5153
H	  6.4243    1.7991   -2.5943
H	  4.3472    2.1454   -1.3026
H	  4.0978    0.3401    2.6039
H	  6.5271   -0.0798    2.5595
H	  7.8771    0.5869    0.6022
H	  2.2270    1.5535    1.7180
H	  2.3675    2.5294    0.2836
H	  0.6405    0.7284    0.2018
H	  1.8297   -1.0683    1.4271
H	  3.0040   -1.2166    0.1226
H	  1.4167   -2.9722   -0.1877
H	  0.6008   -2.3189   -2.5337
H	  2.3178   -2.1267   -2.1724
H	  1.3499   -0.1864   -3.3467
H	 -1.2238   -0.8760   -1.6613
H	 -2.2084   -2.9174    2.7341
H	  0.0662   -2.9253    1.9086
H	 -4.0730   -1.5462    3.4628
H	 -4.4544   -3.2485    2.9834
H	 -5.7038   -1.9990    2.9539
H	 -5.4215   -0.4867   -0.0637
H	 -4.5674    1.2549   -2.4083
H	 -5.9813    0.2090   -2.2940
H	 -7.1059    1.6988   -0.8162
H	 -6.1276    2.8856   -1.6903
H	 -4.9514    3.3232    0.2913
H	 -5.9970    2.1583    1.1115
H	 -3.9548    0.9850    1.3406
H	 -3.2595    1.7272   -0.0986
10	10	10	10	10	10	10	10	10	10	10	10	10	10	10	10	10	10	10	10	10	10	10	10	10	10	10	10	10	10	10	10	10	10	10	10	10	10	10	10	10	10	10	10	10	10	10	10	10	10	10	10	10	10	10	10	10	10	10	10	10	10	10	10	10	10	10	10	10	10	10	10	10	10	10	10	10	10	10	10	10	10	10	10	10	10	10	10	10	10	10	10	10	10	10	10	10	10	10	10	10	10	10	10	10	10	10	10	10	10	10	10	10	10	10	10	10	10	10	10	10	10	10	10	10	10	10	10	10	10	10	10	10	10	10	10	10	10	10	10	10	10	10	10	10	10	10	10	10	10	10	10	10	10	10	10	10	10	10	10	10	10	10	10	10	10	10	10	10	10	10	10	10	10	10
CC1=CC(=CC=C1)C[C@@H]2C[C@H](CNC2=O)C3=CC(=C(C=C3)OC)OC4CCCC4	CC1=CC(=CC=C1)C[C@@H]2C[C@H](CNC2=O)C3=CC(=C(C=C3)OC)OC4CCCC4
CC1=CC(=CC=C1)C[C@@H]2C[C@H](CNC2=O)C3=CC(=C(C=C3)OC)OC4CCCC4	CC1=CC(=CC=C1)C[C@@H]2C[C@H](CNC2=O)C3=CC(=C(C=C3)OC)OC4CCCC4
O=C1NCC(c2cccc(OC3CCCC3)c2)CC1Cc1ccccc1
