50
covid	1156	99	99	99	99	99	99	99	99	99	99	99	99	99	99	99
C	 -8.7869    0.9318    1.1135
C	 -8.4568    0.0161    0.1158
C	 -7.1179   -0.2599   -0.1729
C	 -6.1045    0.3703    0.5483
C	 -6.4362    1.2698    1.5855
C	 -7.7786    1.5726    1.8341
N	 -5.4092    2.0387    2.2015
N	 -4.7255    0.1645    0.3312
C	 -4.1215   -0.6792   -0.5755
O	 -4.6863   -1.4309   -1.3622
C	 -2.6289   -0.6735   -0.5490
C	 -1.9532   -1.8500   -0.8966
C	 -0.5564   -1.8922   -0.8893
C	  0.1854   -0.7560   -0.5389
C	 -0.4962    0.4268   -0.2125
C	 -1.8933    0.4717   -0.2205
C	  1.6982   -0.7887   -0.5352
N	  2.1918    0.0370   -1.6156
C	  3.5625   -0.0386   -1.8033
N	  3.9781    0.0501   -3.0697
C	  5.3031   -0.0088   -3.2779
C	  6.2241   -0.1535   -2.2696
C	  5.7164   -0.2404   -0.9882
N	  4.3839   -0.1958   -0.7570
C	  6.5629   -0.4021    0.2088
C	  7.8793    0.0596    0.2766
N	  8.7044   -0.0746    1.3464
C	  8.1933   -0.6920    2.4302
C	  6.9014   -1.1799    2.4913
C	  6.0853   -1.0298    1.3703
H	 -9.8304    1.1550    1.3204
H	 -9.2415   -0.4804   -0.4499
H	 -6.8963   -0.9674   -0.9653
H	 -8.0521    2.3059    2.5869
H	 -5.7215    2.3969    3.1024
H	 -5.1957    2.8332    1.5975
H	 -4.1543    0.6563    1.0116
H	 -2.5167   -2.7391   -1.1745
H	 -0.0553   -2.8181   -1.1640
H	  0.0690    1.3254    0.0315
H	 -2.3851    1.4143    0.0013
H	  2.0440   -1.8254   -0.6424
H	  2.0473   -0.4237    0.4395
H	  1.7696   -0.1437   -2.5196
H	  5.6127    0.0643   -4.3164
H	  7.2799   -0.2111   -2.4952
H	  8.3395    0.5894   -0.5533
H	  8.8691   -0.7845    3.2754
H	  6.5333   -1.6651    3.3882
H	  5.0657   -1.4089    1.4057
10	10	10	10	10	10	10	10	10	10	10	10	10	10	10	10	10	10	10	10	10	10	10	10	10	10	10	10	10	10	10	10	10	10	10	10	10	10	10	10	10	10	10	10	10	10	10	10	10	10	10	10	10	10	10	10	10	10	10	10	10	10	10	10	10	10	10	10	10	10	10	10	10	10	10	10	10	10	10	10	10	10	10	10	10	10	10	10	10	10	10	10	10	10	10	10	10	10	10	10	10	10	10	10	10	10	10	10	10	10	10	10	10	10	10	10	10	10	10	10	10	10	10	10	10	10	10	10	10	10	10	10	10	10	10	10	10	10	10	10	10	10	10	10	10
C1=CC=C(C(=C1)N)NC(=O)C2=CC=C(C=C2)CNC3=NC=CC(=N3)C4=CN=CC=C4	C1=CC=C(C(=C1)N)NC(=O)C2=CC=C(C=C2)CNC3=NC=CC(=N3)C4=CN=CC=C4
C1=CC=C(C(=C1)N)NC(=O)C2=CC=C(C=C2)CNC3=NC=CC(=N3)C4=CN=CC=C4	C1=CC=C(C(=C1)N)NC(=O)C2=CC=C(C=C2)CNC3=NC=CC(=N3)C4=CN=CC=C4
O=C(Nc1ccccc1)c1ccc(CNc2nccc(-c3cccnc3)n2)cc1
