51
covid	1780	99	99	99	99	99	99	99	99	99	99	99	99	99	99	99
C	 -4.3938   -4.8474   -0.0903
C	 -4.7777   -3.5579    0.5440
C	 -4.1361   -2.9310    1.6075
S	 -4.9911   -1.4823    2.0005
C	 -6.0875   -1.7899    0.7257
N	 -5.8794   -2.8861    0.0346
C	 -3.0068   -3.3527    2.3609
C	 -1.8425   -2.6851    2.4152
C	 -1.4925   -1.4536    1.7125
C	 -1.1479   -0.3244    2.3714
N	 -0.8349    0.8222    1.7139
C	 -0.9332    1.0287    0.2863
C	 -0.0261    2.2831    0.4893
C	 -0.0976    1.9118    2.0062
O	  0.3782    2.3292    3.0352
N	  1.3303    2.2651   -0.1088
C	  1.5247    2.5386   -1.4459
O	  0.6277    2.7875   -2.2388
C	  2.9794    2.4599   -1.9047
N	  3.9137    3.2031   -1.3772
O	  3.4126    4.0918   -0.4140
C	  4.4831    4.9205    0.0283
C	  3.3689    1.5005   -2.9403
C	  2.4994    0.6562   -3.6110
S	  3.3529   -0.3081   -4.7408
C	  4.8151    0.4518   -4.2733
N	  4.7033    1.3477   -3.3281
N	  5.9894    0.1214   -4.8335
S	 -0.2344   -0.4264   -0.5506
C	 -1.4564   -1.5627    0.1981
C	 -1.0615   -0.3029    3.8505
O	 -1.9480    0.0217    4.6187
O	  0.1612   -0.6791    4.2674
H	 -4.5935   -5.6802    0.5907
H	 -3.3302   -4.8512   -0.3481
H	 -4.9630   -5.0131   -1.0101
H	 -6.9072   -1.1177    0.5068
H	 -3.1043   -4.2847    2.9137
H	 -1.0518   -3.0945    3.0459
H	 -1.9507    1.2819   -0.0351
H	 -0.5353    3.2316    0.2782
H	  2.1616    2.2332    0.4767
H	  4.8784    5.5054   -0.8080
H	  4.0983    5.6047    0.7888
H	  5.2754    4.3098    0.4718
H	  1.4271    0.5611   -3.5097
H	  6.8084    0.4031   -4.3052
H	  6.0657   -0.7959   -5.2538
H	 -2.4418   -1.3510   -0.2286
H	 -1.1658   -2.5728   -0.1103
H	  0.1359   -0.5210    5.2341
10	10	10	10	10	10	10	10	10	10	10	10	10	10	10	10	10	10	10	10	10	10	10	10	10	10	10	10	10	10	10	10	10	10	10	10	10	10	10	10	10	10	10	10	10	10	10	10	10	10	10	10	10	10	10	10	10	10	10	10	10	10	10	10	10	10	10	10	10	10	10	10	10	10	10	10	10	10	10	10	10	10	10	10	10	10	10	10	10	10	10	10	10	10	10	10	10	10	10	10	10	10	10	10	10	10	10	10	10	10	10	10	10	10	10	10	10	10	10	10	10	10	10	10	10	10	10	10	10	10	10	10	10	10	10	10	10	10	10	10	10	10	10	10	10	10	10	10
CC1=C(SC=N1)/C=C\\C2=C(N3[C@@H]([C@@H](C3=O)NC(=O)/C(=N\\OC)/C4=CSC(=N4)N)SC2)C(=O)O	CC1=C(SC=N1)/C=C\\C2=C(N3[C@@H]([C@@H](C3=O)NC(=O)/C(=N\\OC)/C4=CSC(=N4)N)SC2)C(=O)O
CC1=C(SC=N1)/C=C\\C2=C(N3[C@@H]([C@@H](C3=O)NC(=O)/C(=N\\OC)/C4=CSC(=N4)N)SC2)C(=O)O	CC1=C(SC=N1)/C=C\\C2=C(N3[C@@H]([C@@H](C3=O)NC(=O)/C(=N\\OC)/C4=CSC(=N4)N)SC2)C(=O)O
N=C(C(=O)NC1C(=O)N2C=C(C=Cc3cncs3)CSC12)c1cscn1
