47
covid	1515	99	99	99	99	99	99	99	99	99	99	99	99	99	99	99
C	 -5.8360    1.3903    0.1269
C	 -7.1749    1.4504   -0.5964
O	 -8.0717    0.5410    0.0279
C	 -7.5834   -0.7826   -0.1045
C	 -6.0843   -1.0679    0.1364
O	 -5.7273   -2.2331    0.3172
N	 -5.2333    0.0528    0.0915
C	 -3.8065   -0.0633    0.2402
C	 -3.1184   -1.2246   -0.1228
C	 -1.7217   -1.3275    0.0037
C	 -0.9553   -0.2714    0.4984
C	 -1.6390    0.8955    0.8597
C	 -3.0349    0.9983    0.7301
N	  0.4553   -0.3567    0.6265
C	  1.2679    0.7170    1.1177
C	  2.6729    0.2553    0.8038
O	  2.5582   -1.1729    0.7306
C	  1.2464   -1.4873    0.4685
O	  0.9212   -2.6196    0.1538
C	  3.1774    0.7804   -0.5481
N	  4.5566    0.3935   -0.7974
C	  5.6009    1.0592   -0.1783
O	  5.3774    2.0491    0.5172
C	  6.9222    0.4864   -0.3989
C	  7.3425   -0.4960   -1.2839
C	  8.7409   -0.7703   -1.1768
C	  9.3255    0.0176   -0.2218
S	  8.2453    1.0694    0.5380
Cl	 10.9816    0.0186    0.2304
H	 -5.1693    2.1152   -0.3520
H	 -5.9726    1.6517    1.1831
H	 -7.0757    1.2056   -1.6608
H	 -7.6014    2.4551   -0.5175
H	 -8.1492   -1.4003    0.6012
H	 -7.8197   -1.1364   -1.1153
H	 -3.6358   -2.0830   -0.5437
H	 -1.2717   -2.2648   -0.3114
H	 -1.1180    1.7555    1.2697
H	 -3.4915    1.9255    1.0636
H	  1.0299    1.6767    0.6493
H	  1.1174    0.7862    2.2015
H	  3.3614    0.5199    1.6132
H	  3.1120    1.8735   -0.5827
H	  2.5914    0.3697   -1.3775
H	  4.7169   -0.5407   -1.1490
H	  6.6930   -0.9981   -1.9901
H	  9.2772   -1.4995   -1.7713
10	10	10	10	10	10	10	10	10	10	10	10	10	10	10	10	10	10	10	10	10	10	10	10	10	10	10	10	10	10	10	10	10	10	10	10	10	10	10	10	10	10	10	10	10	10	10	10	10	10	10	10	10	10	10	10	10	10	10	10	10	10	10	10	10	10	10	10	10	10	10	10	10	10	10	10	10	10	10	10	10	10	10	10	10	10	10	10	10	10	10	10	10	10	10	10	10	10	10	10	10	10	10	10	10	10	10	10	10	10	10	10	10	10	10	10	10	10	10	10	10	10	10	10	10	10	10	10	10	10	10	10	10	10	10	10
C1COCC(=O)N1C2=CC=C(C=C2)N3C[C@@H](OC3=O)CNC(=O)C4=CC=C(S4)Cl	C1COCC(=O)N1C2=CC=C(C=C2)N3C[C@@H](OC3=O)CNC(=O)C4=CC=C(S4)Cl
C1COCC(=O)N1C2=CC=C(C=C2)N3C[C@@H](OC3=O)CNC(=O)C4=CC=C(S4)Cl	C1COCC(=O)N1C2=CC=C(C=C2)N3C[C@@H](OC3=O)CNC(=O)C4=CC=C(S4)Cl
O=C(NCC1CN(c2ccc(N3CCOCC3=O)cc2)C(=O)O1)c1cccs1
