57
covid	1936	99	99	99	99	99	99	99	99	99	99	99	99	99	99	99
C	 -4.6371   -1.0391    2.2981
C	 -3.8147    0.2353    2.0048
C	 -4.7095    1.2926    1.3208
C	 -4.9782    0.9545   -0.1358
C	 -3.6807    0.9314   -0.9734
C	 -2.5561    0.1734   -0.2549
C	 -2.6138   -0.1448    1.1260
C	 -1.5470   -0.8749    1.7014
C	 -0.4269   -1.2466    0.9604
C	 -0.3559   -0.8922   -0.3801
C	 -1.4038   -0.1943   -0.9836
C	  0.8541   -1.2361   -1.1733
N	  0.8526   -2.0940   -2.1567
O	 -0.4036   -2.6774   -2.3556
C	  2.1463   -0.5590   -0.8187
C	  3.3546   -1.1449   -1.2227
C	  4.5884   -0.5478   -0.9154
C	  4.6094    0.6664   -0.1919
C	  3.3966    1.2517    0.2012
C	  2.1751    0.6472   -0.1108
C	  5.8422    1.2639    0.1162
C	  7.0462    0.6704   -0.2849
C	  7.0223   -0.5298   -1.0004
C	  5.8011   -1.1329   -1.3127
C	  8.3152    1.3496    0.0710
O	  8.4161    2.3912    0.6925
O	  9.4021    0.6912   -0.3686
C	 -3.2060    2.3757   -1.2475
C	 -4.0450    0.2744   -2.3263
C	 -3.3687    0.8477    3.3541
H	 -4.0625   -1.7621    2.8892
H	 -5.5433   -0.8025    2.8672
H	 -4.9418   -1.5514    1.3790
H	 -4.2430    2.2839    1.3820
H	 -5.6656    1.3800    1.8530
H	 -5.4869   -0.0160   -0.1941
H	 -5.6837    1.6856   -0.5517
H	 -1.5821   -1.1755    2.7462
H	  0.3748   -1.8092    1.4300
H	 -1.3057    0.0586   -2.0367
H	 -0.2354   -3.2885   -3.0956
H	  3.3336   -2.0803   -1.7794
H	  3.3913    2.1903    0.7523
H	  1.2592    1.1439    0.1987
H	  5.8694    2.1999    0.6727
H	  7.9460   -1.0055   -1.3212
H	  5.8039   -2.0670   -1.8717
H	 10.1510    1.2470   -0.0669
H	 -4.0038    2.9746   -1.7014
H	 -2.3534    2.3955   -1.9367
H	 -2.8853    2.8831   -0.3312
H	 -4.2854   -0.7877   -2.1987
H	 -4.9173    0.7632   -2.7764
H	 -3.2338    0.3435   -3.0586
H	 -2.8509    0.1245    3.9928
H	 -2.6917    1.6961    3.1993
H	 -4.2327    1.2089    3.9247
10	10	10	10	10	10	10	10	10	10	10	10	10	10	10	10	10	10	10	10	10	10	10	10	10	10	10	10	10	10	10	10	10	10	10	10	10	10	10	10	10	10	10	10	10	10	10	10	10	10	10	10	10	10	10	10	10	10	10	10	10	10	10	10	10	10	10	10	10	10	10	10	10	10	10	10	10	10	10	10	10	10	10	10	10	10	10	10	10	10	10	10	10	10	10	10	10	10	10	10	10	10	10	10	10	10	10	10	10	10	10	10	10	10	10	10	10	10	10	10	10	10	10	10	10	10	10	10	10	10	10	10	10	10	10	10	10	10	10	10	10	10	10	10	10	10	10	10	10	10	10	10	10	10	10	10	10	10	10	10	10	10	10	10	10	10
CC1(CCC(C2=C1C=CC(=C2)/C(=N\\O)/C3=CC4=C(C=C3)C=C(C=C4)C(=O)O)(C)C)C	CC1(CCC(C2=C1C=CC(=C2)/C(=N\\O)/C3=CC4=C(C=C3)C=C(C=C4)C(=O)O)(C)C)C
CC1(CCC(C2=C1C=CC(=C2)/C(=N\\O)/C3=CC4=C(C=C3)C=C(C=C4)C(=O)O)(C)C)C	CC1(CCC(C2=C1C=CC(=C2)/C(=N\\O)/C3=CC4=C(C=C3)C=C(C=C4)C(=O)O)(C)C)C
N=C(c1ccc2c(c1)CCCC2)c1ccc2ccccc2c1
