44
covid	1677	99	99	99	99	99	99	99	99	99	99	99	99	99	99	99
C	 -7.1296    0.9253    0.9050
C	 -7.0154   -0.4239    0.5763
C	 -6.0414   -0.8425   -0.3316
C	 -5.1738    0.0865   -0.9244
C	 -5.2942    1.4407   -0.5797
C	 -6.2689    1.8571    0.3285
C	 -4.1020   -0.3696   -1.8915
N	 -2.8629   -0.7082   -1.2067
C	 -2.6935   -2.0162   -0.7793
O	 -3.4885   -2.9309   -0.9829
C	 -1.4573   -2.3227   -0.0366
C	 -0.5763   -1.3452    0.1491
N	 -0.7873   -0.0786   -0.3277
C	 -1.9191    0.3062   -1.0255
O	 -2.0671    1.4510   -1.4560
C	  0.2772    0.7353   -0.0129
C	  1.2592    0.1394    0.6722
S	  0.9321   -1.5315    0.9917
C	  2.4839    0.8439    1.0994
O	  2.6842    2.0289    0.8686
O	  3.3234    0.0128    1.7623
C	  4.5753    0.5808    2.1625
C	  5.6169    0.2858    1.1153
C	  6.2027   -0.9853    1.0342
C	  7.1534   -1.2645    0.0512
C	  7.5212   -0.2796   -0.8637
C	  6.9358    0.9836   -0.7999
C	  5.9852    1.2649    0.1825
H	 -7.8880    1.2504    1.6123
H	 -7.6837   -1.1524    1.0282
H	 -5.9616   -1.9015   -0.5725
H	 -4.6257    2.1814   -1.0160
H	 -6.3542    2.9094    0.5870
H	 -4.4667   -1.2360   -2.4573
H	 -3.9203    0.4168   -2.6345
H	 -1.3245   -3.3353    0.3195
H	  0.2639    1.7743   -0.3244
H	  4.5006    1.6548    2.3731
H	  4.8635    0.1089    3.1091
H	  5.9163   -1.7663    1.7354
H	  7.6044   -2.2519   -0.0033
H	  8.2602   -0.4978   -1.6300
H	  7.2159    1.7497   -1.5183
H	  5.5268    2.2520    0.2123
10	10	10	10	10	10	10	10	10	10	10	10	10	10	10	10	10	10	10	10	10	10	10	10	10	10	10	10	10	10	10	10	10	10	10	10	10	10	10	10	10	10	10	10	10	10	10	10	10	10	10	10	10	10	10	10	10	10	10	10	10	10	10	10	10	10	10	10	10	10	10	10	10	10	10	10	10	10	10	10	10	10	10	10	10	10	10	10	10	10	10	10	10	10	10	10	10	10	10	10	10	10	10	10	10	10	10	10	10	10	10	10	10	10	10	10	10	10	10	10	10	10	10	10	10	10	10
C1=CC=C(C=C1)CN2C(=O)C=C3N(C2=O)C=C(S3)C(=O)OCC4=CC=CC=C4	C1=CC=C(C=C1)CN2C(=O)C=C3N(C2=O)C=C(S3)C(=O)OCC4=CC=CC=C4
C1=CC=C(C=C1)CN2C(=O)C=C3N(C2=O)C=C(S3)C(=O)OCC4=CC=CC=C4	C1=CC=C(C=C1)CN2C(=O)C=C3N(C2=O)C=C(S3)C(=O)OCC4=CC=CC=C4
O=C(OCc1ccccc1)c1cn2c(=O)n(Cc3ccccc3)c(=O)cc2s1
