51
covid	1983	99	99	99	99	99	99	99	99	99	99	99	99	99	99	99
C	 -8.7639    0.8211   -0.3002
C	 -7.9116   -0.3708   -0.1518
C	 -6.5557   -0.5860   -0.1139
C	 -6.4184   -1.9844    0.0476
N	 -7.6197   -2.5732    0.0700
O	 -8.5521   -1.5616   -0.0371
N	 -5.2900   -2.7683    0.1316
C	 -3.9697   -2.4365    0.1927
O	 -3.1386   -3.3021   -0.0733
N	 -3.6737   -1.1656    0.6010
C	 -2.4072   -0.5345    0.6187
C	 -2.2651    0.6699    1.3336
C	 -1.0427    1.3435    1.3756
C	  0.0513    0.8307    0.6824
C	 -0.0698   -0.3668   -0.0248
C	 -1.2972   -1.0392   -0.0648
O	  1.2320    1.5312    0.7960
C	  2.0299    1.6049   -0.3277
C	  3.3488    1.1143   -0.2656
C	  3.8992    0.5009    0.8822
C	  5.2108    0.0224    0.8806
C	  5.9881    0.1616   -0.2809
C	  5.4336    0.7709   -1.4128
C	  4.1310    1.2491   -1.4266
N	  3.6662    1.8251   -2.5500
C	  2.4032    2.3027   -2.5562
C	  1.5511    2.2254   -1.4771
O	  7.2692   -0.3288   -0.2126
C	  8.0922   -0.1875   -1.3620
O	  5.8191   -0.5857    1.9490
C	  5.0466   -0.7886    3.1237
Cl	 -3.6056    1.3602    2.1871
H	 -9.3456    0.7636   -1.2251
H	 -8.1605    1.7334   -0.3330
H	 -9.4589    0.9035    0.5409
H	 -5.7968    0.1729   -0.2215
H	 -5.4703   -3.7564    0.0101
H	 -4.3700   -0.7289    1.1920
H	 -0.9394    2.2661    1.9403
H	  0.7811   -0.7997   -0.5455
H	 -1.3532   -1.9586   -0.6414
H	  3.2767    0.4098    1.7666
H	  6.0076    0.8913   -2.3258
H	  2.0904    2.7684   -3.4867
H	  0.5512    2.6377   -1.5297
H	  9.0707   -0.6176   -1.1275
H	  7.6812   -0.7416   -2.2123
H	  8.2449    0.8677   -1.6118
H	  4.1810   -1.4283    2.9229
H	  4.7408    0.1660    3.5641
H	  5.6779   -1.3038    3.8542
10	10	10	10	10	10	10	10	10	10	10	10	10	10	10	10	10	10	10	10	10	10	10	10	10	10	10	10	10	10	10	10	10	10	10	10	10	10	10	10	10	10	10	10	10	10	10	10	10	10	10	10	10	10	10	10	10	10	10	10	10	10	10	10	10	10	10	10	10	10	10	10	10	10	10	10	10	10	10	10	10	10	10	10	10	10	10	10	10	10	10	10	10	10	10	10	10	10	10	10	10	10	10	10	10	10	10	10	10	10	10	10	10	10	10	10	10	10	10	10	10	10	10	10	10	10	10	10	10	10	10	10	10	10	10	10	10	10	10	10	10	10	10	10	10	10	10	10
CC1=CC(=NO1)NC(=O)NC2=C(C=C(C=C2)OC3=C4C=C(C(=CC4=NC=C3)OC)OC)Cl	CC1=CC(=NO1)NC(=O)NC2=C(C=C(C=C2)OC3=C4C=C(C(=CC4=NC=C3)OC)OC)Cl
CC1=CC(=NO1)NC(=O)NC2=C(C=C(C=C2)OC3=C4C=C(C(=CC4=NC=C3)OC)OC)Cl	CC1=CC(=NO1)NC(=O)NC2=C(C=C(C=C2)OC3=C4C=C(C(=CC4=NC=C3)OC)OC)Cl
O=C(Nc1ccc(Oc2ccnc3ccccc23)cc1)Nc1ccon1
