60
covid	1570	99	99	99	99	99	99	99	99	99	99	99	99	99	99	99
C	 -1.1889   -1.6514    2.2478
C	 -1.5325   -1.1821    0.8178
C	 -1.0225   -2.2155   -0.2086
C	  0.4982   -2.2507   -0.3118
C	  1.0913   -0.8771   -0.6619
C	  0.5810    0.2197    0.3088
C	 -0.9660    0.2069    0.4570
C	 -1.4628    1.2302    1.4775
C	 -2.9664    1.2093    1.6455
O	 -3.5268    2.1725    2.1736
N	 -3.6469    0.0708    1.2228
C	 -3.0611   -1.0971    0.7301
O	 -3.7275   -2.0444    0.3092
C	 -5.1058    0.1224    1.2445
C	 -5.6693    0.7074   -0.0264
C	 -5.9549   -0.0979   -1.1257
N	 -6.4398    0.3664   -2.3008
C	 -6.6489    1.6969   -2.3895
C	 -6.3930    2.5859   -1.3595
C	 -5.8934    2.0812   -0.1626
C	  1.0912    1.6237   -0.1040
C	  2.3673    1.6516   -0.9488
C	  3.2290    0.4310   -0.7831
C	  2.6163   -0.8344   -0.6798
C	  3.4318   -1.9745   -0.6285
C	  4.8237   -1.8582   -0.6557
C	  5.4151   -0.6014   -0.7314
C	  4.6256    0.5416   -0.8223
O	  6.7807   -0.5416   -0.7914
S	  7.5808    0.2487    0.3879
O	  7.3422   -0.3867    1.6657
O	  7.4556    1.6796    0.2028
N	  9.1975   -0.0777    0.0522
H	 -0.1150   -1.6160    2.4507
H	 -1.5203   -2.6856    2.4032
H	 -1.6918   -1.0547    3.0164
H	 -1.4387   -1.9880   -1.2000
H	 -1.3846   -3.2207    0.0444
H	  0.9207   -2.6238    0.6293
H	  0.7700   -2.9806   -1.0846
H	  0.7540   -0.6299   -1.6797
H	  1.0153    0.0121    1.2987
H	 -1.3867    0.4923   -0.5206
H	 -1.0042    1.0796    2.4610
H	 -1.2023    2.2426    1.1482
H	 -5.5192   -0.8819    1.4015
H	 -5.4459    0.7163    2.1021
H	 -5.7950   -1.1740   -1.0969
H	 -7.0394    2.0415   -3.3428
H	 -6.5762    3.6471   -1.4852
H	 -5.6782    2.7619    0.6592
H	  0.3187    2.1736   -0.6569
H	  1.2661    2.2022    0.8137
H	  2.0975    1.7234   -2.0107
H	  2.9298    2.5623   -0.7092
H	  3.0080   -2.9733   -0.5685
H	  5.4409   -2.7524   -0.6160
H	  5.0864    1.5195   -0.9412
H	  9.6039   -0.5505    0.8600
H	  9.6656    0.8019   -0.1647
10	10	10	10	10	10	10	10	10	10	10	10	10	10	10	10	10	10	10	10	10	10	10	10	10	10	10	10	10	10	10	10	10	10	10	10	10	10	10	10	10	10	10	10	10	10	10	10	10	10	10	10	10	10	10	10	10	10	10	10	10	10	10	10	10	10	10	10	10	10	10	10	10	10	10	10	10	10	10	10	10	10	10	10	10	10	10	10	10	10	10	10	10	10	10	10	10	10	10	10	10	10	10	10	10	10	10	10	10	10	10	10	10	10	10	10	10	10	10	10	10	10	10	10	10	10	10	10	10	10	10	10	10	10	10	10	10	10	10	10	10	10	10	10	10	10	10	10	10	10	10	10	10	10	10	10	10	10	10	10	10	10	10	10	10	10	10	10	10	10	10	10	10	10	10
C[C@]12CC[C@H]3[C@H]([C@@H]1CC(=O)N(C2=O)CC4=CN=CC=C4)CCC5=C3C=CC(=C5)OS(=O)(=O)N	C[C@]12CC[C@H]3[C@H]([C@@H]1CC(=O)N(C2=O)CC4=CN=CC=C4)CCC5=C3C=CC(=C5)OS(=O)(=O)N
C[C@]12CC[C@H]3[C@H]([C@@H]1CC(=O)N(C2=O)CC4=CN=CC=C4)CCC5=C3C=CC(=C5)OS(=O)(=O)N	C[C@]12CC[C@H]3[C@H]([C@@H]1CC(=O)N(C2=O)CC4=CN=CC=C4)CCC5=C3C=CC(=C5)OS(=O)(=O)N
O=C1CC2C(CCC3c4ccccc4CCC32)C(=O)N1Cc1cccnc1
