68
covid	1189	99	99	99	99	99	99	99	99	99	99	99	99	99	99	99
C	 -1.5767   -3.3312   -0.0233
N	 -1.3451   -1.8983    0.0734
C	 -2.5361   -1.0542    0.1934
C	 -2.8907   -0.3600   -1.1267
C	 -3.9423    0.7048   -0.9241
C	 -5.3026    0.4139   -1.0897
C	 -6.2801    1.3964   -0.8661
C	 -5.8748    2.6854   -0.4813
C	 -4.5173    2.9931   -0.2952
C	 -3.5601    1.9937   -0.5258
C	 -4.0853    4.3851    0.1052
F	 -2.9771    4.3942    0.8962
F	 -3.7878    5.1615   -0.9728
F	 -5.0430    5.0612    0.7996
C	 -7.7458    1.0890   -1.0673
F	 -8.5473    1.7260   -0.1682
F	 -8.1889    1.4646   -2.2987
F	 -8.0385   -0.2366   -0.9502
C	 -0.0965   -1.2686    0.1735
O	 -0.0461   -0.0367    0.2714
C	  1.1909   -2.1582    0.1559
C	  1.3672   -3.0010    1.4221
C	  2.0941   -4.2038    1.3459
C	  2.2895   -4.9949    2.4786
C	  1.7679   -4.5918    3.7051
C	  1.0574   -3.3964    3.8015
C	  0.8607   -2.6019    2.6706
N	  2.4458   -1.4357   -0.1927
C	  2.4241   -0.8626   -1.5470
C	  3.7878   -0.2396   -1.9289
N	  4.3010    0.7687   -0.9811
C	  4.2515    0.1998    0.3832
C	  2.8999   -0.4380    0.7912
C	  3.5696    2.0371   -1.1054
C	  4.2556    3.1389   -0.3461
C	  4.7529    4.3696   -1.0727
C	  5.7427    3.3970   -0.4954
H	 -1.9605   -3.6839    0.9369
H	 -0.6811   -3.8937   -0.2737
H	 -2.3239   -3.5158   -0.7987
H	 -3.3761   -1.6682    0.5394
H	 -2.3538   -0.3135    0.9815
H	 -2.0028    0.0957   -1.5845
H	 -3.2419   -1.1019   -1.8563
H	 -5.6073   -0.5868   -1.3963
H	 -6.6291    3.4577   -0.3189
H	 -2.5016    2.2208   -0.3888
H	  1.0412   -2.8688   -0.6691
H	  2.5223   -4.5211    0.3961
H	  2.8565   -5.9205    2.4032
H	  1.9225   -5.2036    4.5898
H	  0.6650   -3.0745    4.7630
H	  0.3184   -1.6649    2.7802
H	  2.2084   -1.6531   -2.2746
H	  1.6391   -0.1066   -1.6519
H	  4.5318   -1.0456   -1.9937
H	  3.7279    0.1807   -2.9412
H	  4.5391    0.9481    1.1306
H	  5.0282   -0.5759    0.4458
H	  2.1677    0.3616    0.9333
H	  3.0520   -0.9094    1.7681
H	  3.5292    2.3279   -2.1636
H	  2.5295    1.9586   -0.7673
H	  3.8033    3.2961    0.6309
H	  4.6728    4.4238   -2.1541
H	  4.6546    5.3325   -0.5817
H	  6.3007    2.7532   -1.1699
H	  6.2911    3.6804    0.3955
10	10	10	10	10	10	10	10	10	10	10	10	10	10	10	10	10	10	10	10	10	10	10	10	10	10	10	10	10	10	10	10	10	10	10	10	10	10	10	10	10	10	10	10	10	10	10	10	10	10	10	10	10	10	10	10	10	10	10	10	10	10	10	10	10	10	10	10	10	10	10	10	10	10	10	10	10	10	10	10	10	10	10	10	10	10	10	10	10	10	10	10	10	10	10	10	10	10	10	10	10	10	10	10	10	10	10	10	10	10	10	10	10	10	10	10	10	10	10	10	10	10	10	10	10	10	10	10	10	10	10	10	10	10	10	10	10	10	10	10	10	10	10	10	10	10	10	10	10	10	10	10	10	10	10	10	10	10	10	10	10	10	10	10	10	10	10	10	10	10	10	10	10	10	10	10	10	10	10	10	10	10	10	10	10	10	10	10	10	10	10	10	10	10	10	10	10	10	10
CN(CCC1=CC(=CC(=C1)C(F)(F)F)C(F)(F)F)C(=O)[C@H](C2=CC=CC=C2)N3CCN(CC3)CC4CC4	CN(CCC1=CC(=CC(=C1)C(F)(F)F)C(F)(F)F)C(=O)[C@H](C2=CC=CC=C2)N3CCN(CC3)CC4CC4
CN(CCC1=CC(=CC(=C1)C(F)(F)F)C(F)(F)F)C(=O)[C@H](C2=CC=CC=C2)N3CCN(CC3)CC4CC4	CN(CCC1=CC(=CC(=C1)C(F)(F)F)C(F)(F)F)C(=O)[C@H](C2=CC=CC=C2)N3CCN(CC3)CC4CC4
O=C(NCCc1ccccc1)C(c1ccccc1)N1CCN(CC2CC2)CC1
