57
covid	1669	99	99	99	99	99	99	99	99	99	99	99	99	99	99	99
C	  4.6100    3.3000   -0.2893
C	  4.9520    3.6749   -1.5885
C	  4.4714    2.9448   -2.6783
C	  3.6454    1.8360   -2.4736
C	  3.3054    1.4614   -1.1697
C	  3.7863    2.1945   -0.0758
C	  2.4217    0.3102   -0.9052
O	  1.2618    0.3079   -1.2984
C	  2.9587   -0.8454   -0.1626
C	  2.3510   -1.3055    1.0033
N	  2.7869   -2.4043    1.6794
C	  3.8531   -3.0585    1.1685
C	  4.5188   -2.6678    0.0171
C	  4.0632   -1.5409   -0.6624
C	  1.2585   -0.5900    1.6205
C	 -0.0666   -0.9822    1.6453
N	 -0.6811    0.0806    2.2665
N	  0.2107    1.0197    2.6493
N	  1.4066    0.6226    2.2403
C	 -2.0960    0.2871    2.5288
C	 -2.8449    0.6898    1.2786
C	 -2.5850    1.9215    0.6542
C	 -3.2484    2.2919   -0.5264
C	 -4.1957    1.4124   -1.0755
C	 -4.4825    0.1810   -0.4637
C	 -3.7999   -0.1690    0.7125
C	 -5.4724   -0.7752   -1.0885
F	 -4.8821   -1.6196   -1.9776
F	 -6.1010   -1.5647   -0.1741
F	 -6.4636   -0.1396   -1.7732
C	 -2.9583    3.6282   -1.1731
F	 -3.5126    4.6633   -0.4802
F	 -3.4436    3.7281   -2.4429
F	 -1.6274    3.9044   -1.2577
C	 -0.7458   -2.1364    1.0834
C	 -1.0791   -3.2228    1.8899
C	 -1.7485   -4.2858    1.3085
N	 -2.1021   -4.3283    0.0062
C	 -1.7473   -3.2728   -0.7583
C	 -1.0723   -2.1669   -0.2725
Cl	  3.1346    0.9429   -3.8599
H	  4.9751    3.8772    0.5582
H	  5.5897    4.5410   -1.7536
H	  4.7442    3.2476   -3.6865
H	  3.5042    1.9298    0.9416
H	  4.1698   -3.9350    1.7281
H	  5.3673   -3.2372   -0.3490
H	  4.5507   -1.2335   -1.5831
H	 -2.1972    1.0667    3.2933
H	 -2.4897   -0.6400    2.9591
H	 -1.8408    2.5989    1.0793
H	 -4.7160    1.6885   -1.9950
H	 -4.0070   -1.1355    1.1763
H	 -0.8145   -3.2518    2.9414
H	 -2.0269   -5.1592    1.8911
H	 -2.0319   -3.3384   -1.8047
H	 -0.8169   -1.3465   -0.9377
10	10	10	10	10	10	10	10	10	10	10	10	10	10	10	10	10	10	10	10	10	10	10	10	10	10	10	10	10	10	10	10	10	10	10	10	10	10	10	10	10	10	10	10	10	10	10	10	10	10	10	10	10	10	10	10	10	10	10	10	10	10	10	10	10	10	10	10	10	10	10	10	10	10	10	10	10	10	10	10	10	10	10	10	10	10	10	10	10	10	10	10	10	10	10	10	10	10	10	10	10	10	10	10	10	10	10	10	10	10	10	10	10	10	10	10	10	10	10	10	10	10	10	10	10	10	10	10	10	10	10	10	10	10	10	10	10	10	10	10	10	10	10	10	10	10	10	10	10	10	10	10	10	10	10	10	10	10	10	10	10	10	10	10	10	10
C1=CC=C(C(=C1)C(=O)C2=C(N=CC=C2)C3=C(N(N=N3)CC4=CC(=CC(=C4)C(F)(F)F)C(F)(F)F)C5=CC=NC=C5)Cl	C1=CC=C(C(=C1)C(=O)C2=C(N=CC=C2)C3=C(N(N=N3)CC4=CC(=CC(=C4)C(F)(F)F)C(F)(F)F)C5=CC=NC=C5)Cl
C1=CC=C(C(=C1)C(=O)C2=C(N=CC=C2)C3=C(N(N=N3)CC4=CC(=CC(=C4)C(F)(F)F)C(F)(F)F)C5=CC=NC=C5)Cl	C1=CC=C(C(=C1)C(=O)C2=C(N=CC=C2)C3=C(N(N=N3)CC4=CC(=CC(=C4)C(F)(F)F)C(F)(F)F)C5=CC=NC=C5)Cl
O=C(c1ccccc1)c1cccnc1-c1nnn(Cc2ccccc2)c1-c1ccncc1
