67
covid	1079	99	99	99	99	99	99	99	99	99	99	99	99	99	99	99
C	 -8.8173   -0.2775    0.0993
N	 -7.3760   -0.0421    0.1040
C	 -6.8494    0.0133   -1.2666
C	 -5.3368   -0.2417   -1.3595
C	 -4.6184    0.1947   -0.0701
C	 -5.2072   -0.6248    1.1054
C	 -6.6686   -1.0409    0.8990
N	 -3.1436    0.0570   -0.1571
C	 -2.4350    0.4095    1.0842
C	 -0.9301    0.0802    0.9779
N	 -0.3082    0.5608   -0.2562
C	 -1.1524    1.3888   -1.1068
C	 -2.5662    0.7958   -1.3074
C	  1.0447    0.4363   -0.5431
O	  1.5471    0.9775   -1.5375
C	  1.9154   -0.4646    0.3826
C	  1.8756   -1.9331   -0.0118
C	  1.9392   -2.9142    0.9926
C	  1.9289   -4.2716    0.6674
C	  1.8670   -4.6681   -0.6664
C	  1.8215   -3.7085   -1.6750
C	  1.8323   -2.3497   -1.3522
N	  3.2932    0.0099    0.3094
C	  3.7258    0.9942    1.1711
O	  3.0631    1.3910    2.1237
C	  5.0561    1.5957    0.8687
C	  6.0398    0.8752    0.1702
C	  7.2653    1.5139   -0.0670
C	  7.5358    2.8125    0.3655
C	  6.5428    3.5136    1.0750
C	  5.3115    2.8936    1.3239
C	  8.8598    3.1246   -0.0484
C	  9.3628    2.0275   -0.7089
N	  8.3937    1.0596   -0.7129
H	 -9.0754   -1.2540   -0.3259
H	 -9.2179   -0.2295    1.1179
H	 -9.3320    0.4985   -0.4780
H	 -7.3509   -0.7117   -1.9214
H	 -7.0670    1.0092   -1.6715
H	 -4.9610    0.2862   -2.2423
H	 -5.1550   -1.3110   -1.5322
H	 -4.8529    1.2547    0.1069
H	 -5.1298   -0.0278    2.0235
H	 -4.6239   -1.5399    1.2712
H	 -6.7157   -2.0267    0.4169
H	 -7.1308   -1.1535    1.8877
H	 -2.5703    1.4761    1.3064
H	 -2.8192   -0.1486    1.9439
H	 -0.7830   -1.0046    1.0235
H	 -0.4037    0.5301    1.8268
H	 -0.6866    1.5570   -2.0835
H	 -1.2275    2.3661   -0.6136
H	 -3.2121    1.6291   -1.6122
H	 -2.5245    0.0943   -2.1494
H	  1.5698   -0.3543    1.4145
H	  2.0034   -2.6230    2.0397
H	  1.9746   -5.0191    1.4551
H	  1.8596   -5.7248   -0.9201
H	  1.7804   -4.0174   -2.7166
H	  1.8060   -1.6224   -2.1618
H	  3.6827    0.0164   -0.6251
H	  5.8774   -0.1464   -0.1553
H	  6.7269    4.5232    1.4305
H	  4.5466    3.4366    1.8765
H	  9.3877    4.0536    0.1244
H	 10.3239    1.8524   -1.1728
H	  8.4879    0.1431   -1.1286
10	10	10	10	10	10	10	10	10	10	10	10	10	10	10	10	10	10	10	10	10	10	10	10	10	10	10	10	10	10	10	10	10	10	10	10	10	10	10	10	10	10	10	10	10	10	10	10	10	10	10	10	10	10	10	10	10	10	10	10	10	10	10	10	10	10	10	10	10	10	10	10	10	10	10	10	10	10	10	10	10	10	10	10	10	10	10	10	10	10	10	10	10	10	10	10	10	10	10	10	10	10	10	10	10	10	10	10	10	10	10	10	10	10	10	10	10	10	10	10	10	10	10	10	10	10	10	10	10	10	10	10	10	10	10	10	10	10	10	10	10	10	10	10	10	10	10	10	10	10	10	10	10	10	10	10	10	10	10	10	10	10	10	10	10	10	10	10	10	10	10	10	10	10	10	10	10	10	10	10	10	10	10	10	10	10	10	10	10	10	10	10	10	10	10	10
CN1CCC(CC1)N2CCN(CC2)C(=O)[C@@H](C3=CC=CC=C3)NC(=O)C4=CC5=C(C=C4)C=CN5	CN1CCC(CC1)N2CCN(CC2)C(=O)[C@@H](C3=CC=CC=C3)NC(=O)C4=CC5=C(C=C4)C=CN5
CN1CCC(CC1)N2CCN(CC2)C(=O)[C@@H](C3=CC=CC=C3)NC(=O)C4=CC5=C(C=C4)C=CN5	CN1CCC(CC1)N2CCN(CC2)C(=O)[C@@H](C3=CC=CC=C3)NC(=O)C4=CC5=C(C=C4)C=CN5
O=C(NC(C(=O)N1CCN(C2CCNCC2)CC1)c1ccccc1)c1ccc2cc[nH]c2c1
