54
covid	1478	99	99	99	99	99	99	99	99	99	99	99	99	99	99	99
C	  1.4806   -1.5747   -0.5427
C	  2.5400   -0.7450    0.0941
C	  2.4248    0.1102    1.1786
S	  3.9720    0.7432    1.5680
C	  4.6780   -0.1120    0.2546
N	  3.8194   -0.8391   -0.4351
C	  6.1184   -0.0198   -0.0648
C	  7.0579    0.6173    0.7610
C	  8.4126    0.6713    0.4084
C	  8.8663    0.0932   -0.7844
C	  7.9390   -0.5546   -1.6092
C	  6.5868   -0.6076   -1.2529
C	 10.3291    0.1292   -1.1527
F	 10.9876    1.1993   -0.6255
F	 10.5401    0.1903   -2.4972
F	 10.9996   -0.9730   -0.7183
C	  1.2851    0.5010    1.9861
O	  1.3647    0.8441    3.1640
N	  0.0712    0.5014    1.3282
C	 -1.1128    1.0055    1.9813
C	 -2.3415    0.6558    1.1859
C	 -2.9304   -0.6114    1.3168
C	 -4.0516   -0.9547    0.5587
C	 -4.5985   -0.0269   -0.3221
C	 -3.9941    1.2161   -0.5010
C	 -2.8751    1.5623    0.2578
O	 -5.6620   -0.3542   -1.1076
C	 -6.9856   -0.1839   -0.5442
C	 -7.4054   -1.4995    0.1224
C	 -7.1285    1.0067    0.4191
C	 -7.9031    0.0806   -1.7656
O	 -7.5149    0.2273   -2.9169
O	 -9.2285    0.1654   -1.4804
H	  1.9248   -2.3973   -1.1130
H	  0.8167   -2.0142    0.2082
H	  0.8867   -0.9691   -1.2333
H	  6.7625    1.0799    1.7003
H	  9.1145    1.1704    1.0765
H	  8.2621   -1.0248   -2.5374
H	  5.8892   -1.1179   -1.9169
H	  0.0719    0.4951    0.3186
H	 -1.1811    0.5938    2.9951
H	 -1.0099    2.0922    2.0832
H	 -2.5049   -1.3430    2.0014
H	 -4.4743   -1.9508    0.6452
H	 -4.3909    1.9123   -1.2359
H	 -2.4166    2.5377    0.1117
H	 -8.4455   -1.4828    0.4626
H	 -7.2914   -2.3388   -0.5729
H	 -6.7842   -1.7212    0.9957
H	 -6.4939    0.8951    1.3042
H	 -8.1568    1.1231    0.7767
H	 -6.8450    1.9439   -0.0734
H	 -9.4754    0.0527   -0.5454
10	10	10	10	10	10	10	10	10	10	10	10	10	10	10	10	10	10	10	10	10	10	10	10	10	10	10	10	10	10	10	10	10	10	10	10	10	10	10	10	10	10	10	10	10	10	10	10	10	10	10	10	10	10	10	10	10	10	10	10	10	10	10	10	10	10	10	10	10	10	10	10	10	10	10	10	10	10	10	10	10	10	10	10	10	10	10	10	10	10	10	10	10	10	10	10	10	10	10	10	10	10	10	10	10	10	10	10	10	10	10	10	10	10	10	10	10	10	10	10	10	10	10	10	10	10	10	10	10	10	10	10	10	10	10	10	10	10	10	10	10	10	10	10	10	10	10	10	10	10	10	10	10	10	10	10	10
CC1=C(SC(=N1)C2=CC=C(C=C2)C(F)(F)F)C(=O)NCC3=CC=C(C=C3)OC(C)(C)C(=O)O	CC1=C(SC(=N1)C2=CC=C(C=C2)C(F)(F)F)C(=O)NCC3=CC=C(C=C3)OC(C)(C)C(=O)O
CC1=C(SC(=N1)C2=CC=C(C=C2)C(F)(F)F)C(=O)NCC3=CC=C(C=C3)OC(C)(C)C(=O)O	CC1=C(SC(=N1)C2=CC=C(C=C2)C(F)(F)F)C(=O)NCC3=CC=C(C=C3)OC(C)(C)C(=O)O
O=C(NCc1ccccc1)c1cnc(-c2ccccc2)s1
